<nodes>
	<node id="102918588" x="385158.00" y="5819305.91" z="0.00" type="priority" />
	<node id="102918593" x="385122.08" y="5819499.15" z="0.00" type="priority" />
	<node id="102918596" x="385113.20" y="5819653.91" z="0.00" type="priority" />
	<node id="102918598" x="385102.52" y="5819859.91" z="0.00" type="priority" />
	<node id="1145332275" x="385145.59" y="5819260.90" z="0.00" type="priority" />
	<node id="1145332282" x="385146.96" y="5819247.68" z="0.00" type="priority" />
	<node id="1163349160" x="385115.59" y="5819936.15" z="0.00" type="traffic_light" />
	<node id="1223838352" x="385941.38" y="5819350.32" z="0.00" type="priority" />
	<node id="1228147392" x="385092.06" y="5820013.22" z="0.00" type="priority" />
	<node id="1228147396" x="385108.20" y="5820013.75" z="0.00" type="priority" />
	<node id="1228149457" x="385116.36" y="5820013.89" z="0.00" type="priority" />
	<node id="1254415600" x="385796.33" y="5819338.01" z="0.00" type="priority" />
	<node id="1277967231" x="385570.39" y="5818759.22" z="0.00" type="priority" />
	<node id="1287628428" x="385920.23" y="5820104.61" z="0.00" type="traffic_light" />
	<node id="1316823342" x="386317.36" y="5819847.93" z="0.00" type="traffic_light" />
	<node id="1321325636" x="386052.35" y="5819466.74" z="0.00" type="priority" />
	<node id="1321335395" x="385623.14" y="5819206.90" z="0.00" type="priority" />
	<node id="1335664904" x="386672.88" y="5819416.38" z="0.00" type="traffic_light" />
	<node id="1337618640" x="387108.26" y="5819453.38" z="0.00" type="priority" />
	<node id="1350487095" x="386531.29" y="5818792.14" z="0.00" type="priority" />
	<node id="1362211893" x="387849.06" y="5819519.95" z="0.00" type="priority" />
	<node id="1363248023" x="386289.83" y="5819399.24" z="0.00" type="priority" />
	<node id="1417401017" x="386781.11" y="5819464.16" z="0.00" type="traffic_light" />
	<node id="1476399031" x="385944.48" y="5820104.97" z="0.00" type="traffic_light" />
	<node id="1560866121" x="386457.95" y="5818943.11" z="0.00" type="traffic_light" />
	<node id="1560874123" x="386957.61" y="5818905.18" z="0.00" type="priority" />
	<node id="1656102229" x="386168.04" y="5819448.36" z="0.00" type="traffic_light" />
	<node id="1702876860" x="386356.08" y="5818918.96" z="0.00" type="priority" />
	<node id="1723927593" x="386153.19" y="5819471.70" z="0.00" type="priority" />
	<node id="1723927599" x="386157.39" y="5819494.95" z="0.00" type="priority" />
	<node id="1737184227" x="386371.42" y="5818907.56" z="0.00" type="priority" />
	<node id="1737184228" x="386366.13" y="5818911.09" z="0.00" type="priority" />
	<node id="1749584806" x="385991.30" y="5818952.93" z="0.00" type="priority" />
	<node id="1749584807" x="386033.56" y="5818966.31" z="0.00" type="priority" />
	<node id="1749584808" x="386008.49" y="5818968.86" z="0.00" type="priority" />
	<node id="1750917592" x="386922.24" y="5818769.23" z="0.00" type="priority" />
	<node id="1750917593" x="386788.95" y="5818802.35" z="0.00" type="priority" />
	<node id="1757441427" x="385882.53" y="5819524.63" z="0.00" type="priority" />
	<node id="17777145" x="385267.34" y="5819314.75" z="0.00" type="priority" />
	<node id="1781654674" x="387045.46" y="5819822.99" z="0.00" type="priority" />
	<node id="1781654676" x="387048.57" y="5819835.85" z="0.00" type="priority" />
	<node id="1808258713" x="387108.35" y="5819583.02" z="0.00" type="priority" />
	<node id="1832967693" x="386334.53" y="5819924.40" z="0.00" type="traffic_light" />
	<node id="1832967698" x="386357.14" y="5819931.56" z="0.00" type="traffic_light" />
	<node id="1837751357" x="386699.01" y="5819434.12" z="0.00" type="traffic_light" />
	<node id="1840963728" x="386001.82" y="5818807.85" z="0.00" type="priority" />
	<node id="1914277850" x="387219.62" y="5819771.94" z="0.00" type="priority" />
	<node id="1972845722" x="385688.78" y="5819651.38" z="0.00" type="priority" />
	<node id="1980757232" x="385845.96" y="5818973.98" z="0.00" type="priority" />
	<node id="1992100022" x="386676.26" y="5819432.15" z="0.00" type="priority" />
	<node id="1999948493" x="387069.49" y="5819465.95" z="0.00" type="priority" />
	<node id="1999948496" x="387066.01" y="5819449.72" z="0.00" type="priority" />
	<node id="20246274" x="386545.17" y="5818875.16" z="0.00" type="priority" />
	<node id="2129678384" x="385265.20" y="5819283.26" z="0.00" type="traffic_light" />
	<node id="21487142" x="386047.10" y="5819393.07" z="0.00" type="priority" />
	<node id="21487143" x="386058.53" y="5819412.38" z="0.00" type="priority" />
	<node id="21487144" x="386126.19" y="5819443.67" z="0.00" type="priority" />
	<node id="21487145" x="386184.84" y="5819409.12" z="0.00" type="priority" />
	<node id="21487146" x="386171.90" y="5819329.09" z="0.00" type="priority" />
	<node id="21487148" x="386175.42" y="5819422.77" z="0.00" type="priority" />
	<node id="21487168" x="386186.38" y="5819349.05" z="0.00" type="priority" />
	<node id="21677261" x="387057.26" y="5819464.93" z="0.00" type="priority" />
	<node id="251105087" x="386341.25" y="5819906.79" z="0.00" type="traffic_light" />
	<node id="251106770" x="386106.42" y="5819442.84" z="0.00" type="priority" />
	<node id="251106773" x="386046.54" y="5819367.88" z="0.00" type="traffic_light" />
	<node id="251150123" x="386030.52" y="5819379.86" z="0.00" type="traffic_light" />
	<node id="252864802" x="387057.98" y="5819448.99" z="0.00" type="priority" />
	<node id="260661904" x="387062.16" y="5819481.82" z="0.00" type="priority" />
	<node id="261568494" x="386830.76" y="5818977.03" z="0.00" type="priority" />
	<node id="261568630" x="386721.69" y="5819039.86" z="0.00" type="priority" />
	<node id="263703306" x="385142.81" y="5819285.86" z="0.00" type="priority" />
	<node id="265786533" x="386826.23" y="5819428.99" z="0.00" type="priority" />
	<node id="26682519" x="385109.26" y="5819498.84" z="0.00" type="priority" />
	<node id="26702670" x="387359.86" y="5820035.28" z="0.00" type="priority" />
	<node id="26703870" x="387189.70" y="5819732.33" z="0.00" type="priority" />
	<node id="26703883" x="387104.55" y="5819592.91" z="0.00" type="priority" />
	<node id="26704031" x="386178.25" y="5819233.03" z="0.00" type="priority" />
	<node id="26704042" x="386363.98" y="5818912.55" z="0.00" type="priority" />
	<node id="26704043" x="386398.54" y="5818891.27" z="0.00" type="priority" />
	<node id="26704048" x="386161.97" y="5819290.68" z="0.00" type="traffic_light" />
	<node id="26704049" x="386177.38" y="5818950.33" z="0.00" type="traffic_light" />
	<node id="26704051" x="386186.48" y="5818673.92" z="0.00" type="priority" />
	<node id="26704052" x="386145.44" y="5818685.78" z="0.00" type="priority" />
	<node id="26704053" x="386109.97" y="5818685.89" z="0.00" type="priority" />
	<node id="26704439" x="386939.95" y="5818914.85" z="0.00" type="priority" />
	<node id="26704447" x="386687.07" y="5819433.10" z="0.00" type="priority" />
	<node id="26704448" x="386688.43" y="5819417.71" z="0.00" type="priority" />
	<node id="26704450" x="386748.58" y="5819319.25" z="0.00" type="priority" />
	<node id="26704452" x="386644.54" y="5819082.57" z="0.00" type="priority" />
	<node id="26704482" x="385807.28" y="5819338.98" z="0.00" type="priority" />
	<node id="26704483" x="385870.67" y="5819198.17" z="0.00" type="priority" />
	<node id="26704485" x="385982.46" y="5818971.88" z="0.00" type="priority" />
	<node id="26704492" x="385810.34" y="5818666.93" z="0.00" type="priority" />
	<node id="26704494" x="385828.55" y="5818827.29" z="0.00" type="priority" />
	<node id="26704522" x="385582.67" y="5818856.02" z="0.00" type="priority" />
	<node id="26704523" x="385713.07" y="5818840.88" z="0.00" type="priority" />
	<node id="26704524" x="385619.00" y="5819173.24" z="0.00" type="priority" />
	<node id="26704525" x="385595.44" y="5818973.46" z="0.00" type="priority" />
	<node id="26704526" x="385640.38" y="5819327.59" z="0.00" type="priority" />
	<node id="26704545" x="385694.88" y="5818680.50" z="0.00" type="priority" />
	<node id="26704579" x="386864.33" y="5818957.93" z="0.00" type="priority" />
	<node id="26704580" x="386738.80" y="5818721.05" z="0.00" type="priority" />
	<node id="26704584" x="386088.86" y="5819315.48" z="0.00" type="priority" />
	<node id="26704628" x="386114.76" y="5819443.54" z="0.00" type="priority" />
	<node id="26727582" x="385822.75" y="5819545.32" z="0.00" type="priority" />
	<node id="26727583" x="385678.53" y="5819624.54" z="0.00" type="priority" />
	<node id="26727584" x="385562.62" y="5819688.29" z="0.00" type="priority" />
	<node id="26736168" x="385141.91" y="5819304.61" z="0.00" type="priority" />
	<node id="26736187" x="384989.54" y="5819273.30" z="0.00" type="priority" />
	<node id="26736188" x="385266.07" y="5819296.03" z="0.00" type="priority" />
	<node id="26736189" x="385160.26" y="5819124.92" z="0.00" type="priority" />
	<node id="26736197" x="384731.96" y="5819270.17" z="0.00" type="priority" />
	<node id="26736199" x="385462.51" y="5819157.77" z="0.00" type="priority" />
	<node id="26736200" x="385494.68" y="5819315.73" z="0.00" type="priority" />
	<node id="26758722" x="385634.44" y="5820212.29" z="0.00" type="priority" />
	<node id="26760192" x="386539.96" y="5818861.27" z="0.00" type="priority" />
	<node id="267620336" x="385673.35" y="5819627.28" z="0.00" type="priority" />
	<node id="267620337" x="385665.33" y="5819613.17" z="0.00" type="priority" />
	<node id="267620340" x="385683.13" y="5819640.14" z="0.00" type="priority" />
	<node id="26784912" x="385099.17" y="5819945.02" z="0.00" type="priority" />
	<node id="26784914" x="385099.88" y="5819923.72" z="0.00" type="priority" />
	<node id="26784922" x="384976.87" y="5819493.49" z="0.00" type="priority" />
	<node id="26784926" x="385090.16" y="5819859.49" z="0.00" type="priority" />
	<node id="26784941" x="384824.61" y="5819840.24" z="0.00" type="priority" />
	<node id="26784944" x="384970.02" y="5819643.52" z="0.00" type="priority" />
	<node id="26784946" x="385099.94" y="5819653.84" z="0.00" type="priority" />
	<node id="26784951" x="385205.15" y="5820036.35" z="0.00" type="priority" />
	<node id="26785753" x="386057.75" y="5819341.06" z="0.00" type="priority" />
	<node id="268050708" x="386680.15" y="5819474.74" z="0.00" type="priority" />
	<node id="26869181" x="385981.76" y="5818632.14" z="0.00" type="priority" />
	<node id="26875020" x="385642.05" y="5819345.93" z="0.00" type="priority" />
	<node id="26875021" x="385850.19" y="5819967.17" z="0.00" type="priority" />
	<node id="26875274" x="385583.42" y="5820009.21" z="0.00" type="priority" />
	<node id="26875275" x="385461.28" y="5820036.76" z="0.00" type="priority" />
	<node id="26875283" x="385400.68" y="5820006.82" z="0.00" type="priority" />
	<node id="26875284" x="385430.92" y="5819979.20" z="0.00" type="priority" />
	<node id="26875286" x="385552.90" y="5819951.15" z="0.00" type="priority" />
	<node id="26875287" x="385235.39" y="5820228.22" z="0.00" type="priority" />
	<node id="26903227" x="386349.20" y="5819917.75" z="0.00" type="priority" />
	<node id="26903229" x="386593.98" y="5820395.99" z="0.00" type="priority" />
	<node id="26908924" x="386304.24" y="5819855.90" z="0.00" type="priority" />
	<node id="26938178" x="386149.32" y="5819462.90" z="0.00" type="traffic_light" />
	<node id="26938187" x="386156.29" y="5819591.47" z="0.00" type="priority" />
	<node id="26938189" x="385355.25" y="5819800.90" z="0.00" type="priority" />
	<node id="26938190" x="385666.76" y="5819593.51" z="0.00" type="traffic_light" />
	<node id="26938191" x="385658.69" y="5819576.02" z="0.00" type="priority" />
	<node id="26938192" x="385672.63" y="5819608.83" z="0.00" type="priority" />
	<node id="26938193" x="385554.71" y="5819674.49" z="0.00" type="priority" />
	<node id="26938195" x="385359.41" y="5819782.53" z="0.00" type="priority" />
	<node id="26938196" x="385816.39" y="5819531.11" z="0.00" type="priority" />
	<node id="26938199" x="385992.23" y="5819476.68" z="0.00" type="priority" />
	<node id="26938207" x="386147.34" y="5819273.95" z="0.00" type="priority" />
	<node id="26938209" x="386143.43" y="5819314.80" z="0.00" type="traffic_light" />
	<node id="26938212" x="386074.20" y="5819428.45" z="0.00" type="traffic_light" />
	<node id="26938214" x="386148.56" y="5819438.72" z="0.00" type="traffic_light" />
	<node id="26938217" x="386191.86" y="5819384.56" z="0.00" type="traffic_light" />
	<node id="26938219" x="386020.55" y="5819357.66" z="0.00" type="traffic_light" />
	<node id="26938226" x="386052.98" y="5819444.29" z="0.00" type="traffic_light" />
	<node id="26938227" x="386076.84" y="5819451.44" z="0.00" type="traffic_light" />
	<node id="26977832" x="386729.28" y="5819522.96" z="0.00" type="priority" />
	<node id="26989286" x="387127.87" y="5819916.21" z="0.00" type="priority" />
	<node id="27011308" x="387217.54" y="5819463.29" z="0.00" type="priority" />
	<node id="27011311" x="387216.50" y="5819478.43" z="0.00" type="priority" />
	<node id="2715786143" x="387020.83" y="5819216.00" z="0.00" type="priority" />
	<node id="272256206" x="386453.56" y="5819398.47" z="0.00" type="traffic_light" />
	<node id="272385942" x="386903.47" y="5818798.88" z="0.00" type="priority" />
	<node id="272386378" x="386885.86" y="5818736.00" z="0.00" type="priority" />
	<node id="27409541" x="385284.94" y="5819504.19" z="0.00" type="priority" />
	<node id="27409576" x="385453.05" y="5819509.36" z="0.00" type="priority" />
	<node id="27409601" x="385545.03" y="5819932.22" z="0.00" type="priority" />
	<node id="27409693" x="386242.11" y="5819744.55" z="0.00" type="priority" />
	<node id="27409694" x="385762.47" y="5819795.53" z="0.00" type="priority" />
	<node id="27409695" x="385998.26" y="5820058.34" z="0.00" type="priority" />
	<node id="27409696" x="386142.48" y="5819948.58" z="0.00" type="priority" />
	<node id="27409719" x="385927.87" y="5819924.11" z="0.00" type="priority" />
	<node id="27409724" x="386079.98" y="5819834.73" z="0.00" type="priority" />
	<node id="27409746" x="385994.24" y="5819675.37" z="0.00" type="priority" />
	<node id="27409751" x="385877.55" y="5819736.72" z="0.00" type="priority" />
	<node id="27409755" x="385966.76" y="5819900.65" z="0.00" type="priority" />
	<node id="2747936440" x="386998.09" y="5819225.15" z="0.00" type="priority" />
	<node id="27537747" x="386707.86" y="5819434.89" z="0.00" type="priority" />
	<node id="27537748" x="386759.30" y="5819439.31" z="0.00" type="priority" />
	<node id="27537749" x="386783.75" y="5819425.34" z="0.00" type="priority" />
	<node id="27537750" x="386709.53" y="5819419.41" z="0.00" type="priority" />
	<node id="277697697" x="386312.50" y="5819867.18" z="0.00" type="traffic_light" />
	<node id="2784054037" x="386713.14" y="5819044.82" z="0.00" type="priority" />
	<node id="29009134" x="385472.48" y="5820139.69" z="0.00" type="priority" />
	<node id="292298701" x="386373.79" y="5818997.83" z="0.00" type="priority" />
	<node id="292298702" x="386331.63" y="5818934.44" z="0.00" type="priority" />
	<node id="292298705" x="386439.85" y="5818940.32" z="0.00" type="priority" />
	<node id="3066874439" x="385608.98" y="5819643.99" z="0.00" type="priority" />
	<node id="3066874440" x="385596.13" y="5819669.83" z="0.00" type="priority" />
	<node id="3066874441" x="385287.94" y="5819821.79" z="0.00" type="priority" />
	<node id="3066874442" x="385183.06" y="5819897.64" z="0.00" type="priority" />
	<node id="3066874443" x="385158.82" y="5819911.94" z="0.00" type="priority" />
	<node id="3098737940" x="387019.28" y="5819216.60" z="0.00" type="priority" />
	<node id="3098737941" x="387003.59" y="5819223.09" z="0.00" type="priority" />
	<node id="3098737950" x="387076.42" y="5819450.62" z="0.00" type="priority" />
	<node id="3098737951" x="387099.30" y="5819452.61" z="0.00" type="priority" />
	<node id="3098737953" x="387080.01" y="5819466.83" z="0.00" type="traffic_light" />
	<node id="3098737954" x="387104.72" y="5819468.89" z="0.00" type="priority" />
	<node id="312778949" x="385499.92" y="5819334.16" z="0.00" type="priority" />
	<node id="312778950" x="385485.06" y="5819458.65" z="0.00" type="priority" />
	<node id="313020966" x="386937.99" y="5819249.79" z="0.00" type="priority" />
	<node id="324753730" x="386448.33" y="5818951.03" z="0.00" type="priority" />
	<node id="32522847" x="387096.63" y="5819575.94" z="0.00" type="priority" />
	<node id="32523198" x="387211.33" y="5819569.99" z="0.00" type="priority" />
	<node id="3275571361" x="386249.73" y="5819395.94" z="0.00" type="priority" />
	<node id="33148396" x="387279.62" y="5819686.22" z="0.00" type="priority" />
	<node id="33148400" x="387407.55" y="5819827.05" z="0.00" type="priority" />
	<node id="341364246" x="385754.17" y="5819187.75" z="0.00" type="priority" />
	<node id="341364250" x="385731.49" y="5818975.24" z="0.00" type="priority" />
	<node id="341364267" x="387468.52" y="5819500.91" z="0.00" type="priority" />
	<node id="3425667209" x="386963.39" y="5819440.83" z="0.00" type="priority" />
	<node id="3425667210" x="386836.14" y="5819445.88" z="0.00" type="priority" />
	<node id="3425667211" x="386998.49" y="5819443.88" z="0.00" type="priority" />
	<node id="3491168258" x="387352.05" y="5820022.89" z="0.00" type="traffic_light" />
	<node id="364309950" x="386201.16" y="5819165.95" z="0.00" type="priority" />
	<node id="364309968" x="386169.03" y="5819609.61" z="0.00" type="priority" />
	<node id="364334123" x="386430.31" y="5818947.76" z="0.00" type="traffic_light" />
	<node id="365383734" x="387279.95" y="5819911.52" z="0.00" type="priority" />
	<node id="3684182884" x="386775.02" y="5819424.71" z="0.00" type="traffic_light" />
	<node id="3684182885" x="387063.71" y="5819486.63" z="0.00" type="traffic_light" />
	<node id="3684182886" x="387045.81" y="5819447.96" z="0.00" type="traffic_light" />
	<node id="3684182887" x="386799.31" y="5819442.73" z="0.00" type="traffic_light" />
	<node id="3684247239" x="387214.50" y="5819498.32" z="0.00" type="traffic_light" />
	<node id="3684247241" x="387234.96" y="5819480.08" z="0.00" type="traffic_light" />
	<node id="3684247242" x="387195.25" y="5819461.26" z="0.00" type="traffic_light" />
	<node id="3791061780" x="386135.21" y="5819288.04" z="0.00" type="traffic_light" />
	<node id="3791061796" x="386224.17" y="5819393.84" z="0.00" type="traffic_light" />
	<node id="3791061803" x="386694.66" y="5819399.78" z="0.00" type="traffic_light" />
	<node id="3791061808" x="386762.12" y="5819423.65" z="0.00" type="priority" />
	<node id="3791061868" x="386684.61" y="5819453.52" z="0.00" type="traffic_light" />
	<node id="3791061889" x="387140.42" y="5819577.03" z="0.00" type="priority" />
	<node id="3804695404" x="386214.17" y="5819372.28" z="0.00" type="traffic_light" />
	<node id="3809454353" x="385114.43" y="5819916.12" z="0.00" type="traffic_light" />
	<node id="3809473934" x="385101.84" y="5819877.95" z="0.00" type="priority" />
	<node id="3886445946" x="386059.23" y="5818803.43" z="0.00" type="priority" />
	<node id="3900580935" x="385426.58" y="5819310.24" z="0.00" type="traffic_light" />
	<node id="3900580941" x="385425.23" y="5819327.72" z="0.00" type="traffic_light" />
	<node id="3935677401" x="387331.93" y="5819992.74" z="0.00" type="priority" />
	<node id="3935677403" x="386903.34" y="5818935.89" z="0.00" type="priority" />
	<node id="3935677404" x="386807.28" y="5818990.35" z="0.00" type="priority" />
	<node id="3935677405" x="386793.46" y="5818998.18" z="0.00" type="priority" />
	<node id="3951898354" x="386364.52" y="5818603.43" z="0.00" type="priority" />
	<node id="400912982" x="386383.66" y="5819006.72" z="0.00" type="priority" />
	<node id="401305374" x="385991.20" y="5820167.60" z="0.00" type="priority" />
	<node id="408194196" x="386668.29" y="5819431.48" z="0.00" type="priority" />
	<node id="413669684" x="386973.69" y="5818876.27" z="0.00" type="priority" />
	<node id="415838099" x="386452.45" y="5819412.61" z="0.00" type="traffic_light" />
	<node id="417575074" x="385967.22" y="5819985.06" z="0.00" type="priority" />
	<node id="4277479604" x="385656.27" y="5819547.07" z="0.00" type="priority" />
	<node id="4277479605" x="385690.46" y="5819617.78" z="0.00" type="traffic_light" />
	<node id="4277479606" x="385654.14" y="5819619.43" z="0.00" type="traffic_light" />
	<node id="4404288504" x="386365.93" y="5818614.67" z="0.00" type="traffic_light" />
	<node id="4404288513" x="385985.05" y="5818659.59" z="0.00" type="traffic_light" />
	<node id="4404288515" x="385811.78" y="5818679.12" z="0.00" type="traffic_light" />
	<node id="4489578373" x="385324.21" y="5819801.83" z="0.00" type="traffic_light" />
	<node id="4489578374" x="385336.21" y="5819811.24" z="0.00" type="traffic_light" />
	<node id="4489578382" x="386375.50" y="5819016.78" z="0.00" type="traffic_light" />
	<node id="4489578383" x="386361.43" y="5819013.84" z="0.00" type="traffic_light" />
	<node id="4504087203" x="386220.62" y="5819182.94" z="0.00" type="priority" />
	<node id="4573411515" x="386717.92" y="5819347.69" z="0.00" type="priority" />
	<node id="4598380591" x="385268.26" y="5819328.27" z="0.00" type="traffic_light" />
	<node id="4598380609" x="385276.35" y="5819315.61" z="0.00" type="traffic_light" />
	<node id="4782446440" x="385814.98" y="5819322.78" z="0.00" type="traffic_light" />
	<node id="4782446441" x="385794.19" y="5819337.86" z="0.00" type="traffic_light" />
	<node id="4782446442" x="385807.04" y="5819359.86" z="0.00" type="traffic_light" />
	<node id="4782446443" x="385788.75" y="5819376.32" z="0.00" type="traffic_light" />
	<node id="4853814386" x="385632.49" y="5819291.49" z="0.00" type="priority" />
	<node id="4911322403" x="386217.05" y="5819374.10" z="0.00" type="priority" />
	<node id="4932289021" x="385005.25" y="5819292.78" z="0.00" type="traffic_light" />
	<node id="5156519028" x="385681.65" y="5819638.50" z="0.00" type="traffic_light" />
	<node id="5181544680" x="387500.76" y="5819932.26" z="0.00" type="priority" />
	<node id="5181544693" x="387342.83" y="5820038.97" z="0.00" type="priority" />
	<node id="5194290241" x="386782.56" y="5819441.31" z="0.00" type="priority" />
	<node id="5233789061" x="384951.76" y="5819106.22" z="0.00" type="priority" />
	<node id="527099793" x="387104.17" y="5819571.86" z="0.00" type="priority" />
	<node id="527099926" x="387120.75" y="5819615.65" z="0.00" type="priority" />
	<node id="527099931" x="387097.10" y="5819617.15" z="0.00" type="priority" />
	<node id="5313824950" x="386215.59" y="5819393.92" z="0.00" type="priority" />
	<node id="5733935258" x="385638.05" y="5819995.20" z="0.00" type="priority" />
	<node id="5784595447" x="387487.60" y="5819916.99" z="0.00" type="traffic_light" />
	<node id="5784619545" x="385616.48" y="5819325.77" z="0.00" type="traffic_light" />
	<node id="5784619546" x="385638.73" y="5819308.98" z="0.00" type="traffic_light" />
	<node id="5784619547" x="385636.00" y="5819364.26" z="0.00" type="traffic_light" />
	<node id="5784621455" x="385633.70" y="5819345.16" z="0.00" type="priority" />
	<node id="5784621456" x="385631.49" y="5819326.82" z="0.00" type="priority" />
	<node id="5784621460" x="385641.87" y="5819384.10" z="0.00" type="priority" />
	<node id="5784621463" x="385657.95" y="5819347.31" z="0.00" type="traffic_light" />
	<node id="5784633192" x="384759.94" y="5819272.37" z="0.00" type="traffic_light" />
	<node id="5964778573" x="386360.89" y="5819909.58" z="0.00" type="traffic_light" />
	<node id="5964778576" x="386294.05" y="5819838.70" z="0.00" type="traffic_light" />
	<node id="5964778577" x="386289.79" y="5819864.70" z="0.00" type="traffic_light" />
	<node id="6020210255" x="386001.78" y="5820158.64" z="0.00" type="traffic_light" />
	<node id="6020240415" x="385930.23" y="5820116.60" z="0.00" type="priority" />
	<node id="60644033" x="386779.73" y="5819471.89" z="0.00" type="priority" />
	<node id="614419920" x="385348.30" y="5819788.52" z="0.00" type="priority" />
	<node id="614419921" x="385366.01" y="5819794.98" z="0.00" type="priority" />
	<node id="6211151202" x="386235.02" y="5819186.65" z="0.00" type="priority" />
	<node id="6211151203" x="386562.06" y="5818862.16" z="0.00" type="traffic_light" />
	<node id="6221665681" x="385597.11" y="5818987.61" z="0.00" type="traffic_light" />
	<node id="6221665682" x="385594.06" y="5818960.53" z="0.00" type="traffic_light" />
	<node id="6221665683" x="385610.68" y="5818974.99" z="0.00" type="traffic_light" />
	<node id="6221678514" x="385108.50" y="5819511.55" z="0.00" type="traffic_light" />
	<node id="6221678515" x="385127.42" y="5819484.77" z="0.00" type="traffic_light" />
	<node id="6221678516" x="385140.05" y="5819499.54" z="0.00" type="traffic_light" />
	<node id="6221678517" x="385093.40" y="5819498.20" z="0.00" type="traffic_light" />
	<node id="6257217698" x="386537.80" y="5818843.95" z="0.00" type="traffic_light" />
	<node id="6257217699" x="386525.94" y="5818872.33" z="0.00" type="traffic_light" />
	<node id="6257217701" x="386550.52" y="5818889.03" z="0.00" type="traffic_light" />
	<node id="628156652" x="385803.86" y="5819359.59" z="0.00" type="priority" />
	<node id="628156655" x="385790.36" y="5819358.60" z="0.00" type="priority" />
	<node id="6450818477" x="385159.99" y="5819287.28" z="0.00" type="priority" />
	<node id="654353276" x="387023.49" y="5819461.87" z="0.00" type="priority" />
	<node id="654381284" x="386137.00" y="5819286.00" z="0.00" type="priority" />
	<node id="654381302" x="386074.45" y="5819453.33" z="0.00" type="priority" />
	<node id="654381305" x="386057.66" y="5819436.61" z="0.00" type="priority" />
	<node id="654381313" x="386159.12" y="5819299.69" z="0.00" type="priority" />
	<node id="654381390" x="386144.40" y="5819455.12" z="0.00" type="priority" />
	<node id="654381393" x="386168.48" y="5819450.99" z="0.00" type="priority" />
	<node id="6604935387" x="385276.21" y="5819137.02" z="0.00" type="priority" />
	<node id="6604935388" x="385282.93" y="5819147.77" z="0.00" type="priority" />
	<node id="663807016" x="386134.72" y="5819221.82" z="0.00" type="priority" />
	<node id="667945032" x="386028.54" y="5819358.16" z="0.00" type="priority" />
	<node id="667945033" x="386026.61" y="5819378.74" z="0.00" type="priority" />
	<node id="6868358843" x="387199.55" y="5819571.10" z="0.00" type="priority" />
	<node id="690262560" x="386680.63" y="5818750.42" z="0.00" type="priority" />
	<node id="7028694002" x="386519.66" y="5818693.76" z="0.00" type="priority" />
	<node id="718487900" x="386429.58" y="5818927.62" z="0.00" type="traffic_light" />
	<node id="802800009" x="386169.20" y="5819587.69" z="0.00" type="priority" />
	<node id="805359474" x="387077.62" y="5819466.63" z="0.00" type="priority" />
	<node id="805359476" x="387107.91" y="5819469.16" z="0.00" type="priority" />
	<node id="805359477" x="387074.45" y="5819450.45" z="0.00" type="priority" />
	<node id="8292571419" x="385369.08" y="5819793.34" z="0.00" type="priority" />
	<node id="8442643152" x="386328.93" y="5819889.82" z="0.00" type="priority" />
	<node id="8474943519" x="385840.13" y="5819947.48" z="0.00" type="traffic_light" />
	<node id="8474943522" x="385855.90" y="5819978.86" z="0.00" type="traffic_light" />
	<node id="8474943525" x="385861.75" y="5819960.75" z="0.00" type="traffic_light" />
	<node id="900997396" x="386876.15" y="5818689.98" z="0.00" type="priority" />
</nodes>
