<connections>
	<connection from="109612320_4782446443_26938196" to="4586189_26938196_26727582" />
	<connection from="109612320_4782446443_26938196" to="109612320_26938196_4782446443" />
	<connection from="109612320_4782446443_26938196" to="302429264_26938196_26938199" />
	<connection from="4409396_4404288504_3951898354" to="4409396_3951898354_4404288504" />
	<connection from="4515848_17777145_26736188" to="4515848_26736188_17777145" />
	<connection from="4515848_17777145_26736188" to="32909782_26736188_3900580935" />
	<connection from="4515848_17777145_26736188" to="4471286_26736188_2129678384" />
	<connection from="4400368_26704584_3791061780" to="4400368_3791061780_654381284" />
	<connection from="100541440_27409693_5964778576" to="100541440_5964778576_26908924" />
	<connection from="100541440_27409693_5964778576" to="100541440_5964778576_27409693" />
	<connection from="37764670_6257217701_26704452" to="37764670_26704452_6257217701" />
	<connection from="37764670_6257217701_26704452" to="4381554_26704452_26704450" />
	<connection from="41413736_1476399031_27409695" to="41413736_27409695_1476399031" />
	<connection from="41413736_1476399031_27409695" to="41413736_27409695_27409696" />
	<connection from="163209067_1749584808_1749584807" to="163209067_1749584807_1749584808" />
	<connection from="163209067_1749584808_1749584807" to="163209068_1749584807_26704049" />
	<connection from="320896579_1223838352_26938219" to="320896579_26938219_667945032" />
	<connection from="24619224_5156519028_267620336" to="102698235_267620336_3066874440" />
	<connection from="24619224_5156519028_267620336" to="24619226_267620336_267620337" />
	<connection from="23352698_27537749_5194290241" to="355562350_5194290241_27537748" />
	<connection from="23352698_27537749_5194290241" to="165034514_5194290241_1417401017" />
	<connection from="23352698_27537749_5194290241" to="23352698_5194290241_27537749" />
	<connection from="4471286_6604935388_2129678384" to="4471286_2129678384_26736188" />
	<connection from="4471286_6604935388_2129678384" to="4471286_2129678384_6604935388" />
	<connection from="4377785_324753730_400912982" to="4384717_400912982_292298701" />
	<connection from="4377785_324753730_400912982" to="4377785_400912982_4489578382" />
	<connection from="610847999_5784621456_4853814386" to="4490162_4853814386_1321335395" />
	<connection from="109612315_628156655_5784621463" to="109612315_5784621463_26875020" />
	<connection from="98996700_26736189_1145332282" to="98996700_1145332282_26736189" />
	<connection from="98996700_26736189_1145332282" to="98996702_1145332282_1145332275" />
	<connection from="480240233_102918593_6221678516" to="480240233_6221678516_27409541" />
	<connection from="480240233_102918593_6221678516" to="480240233_6221678516_102918593" />
	<connection from="4410427_26682519_26736168" to="31621011_26736168_4932289021" />
	<connection from="610848023_5784621460_5784619547" to="610848023_5784619547_5784621455" />
	<connection from="320896579_26938219_667945032" to="52578337_667945032_26785753" />
	<connection from="133743711_1321325636_1757441427" to="259176004_1757441427_26727582" />
	<connection from="109612320_628156655_4782446443" to="109612320_4782446443_26938196" />
	<connection from="109612320_628156655_4782446443" to="109612320_4782446443_628156655" />
	<connection from="231887171_1980757232_26704485" to="231887171_26704485_1749584808" />
	<connection from="231887171_1980757232_26704485" to="4381168_26704485_1749584806" />
	<connection from="231887171_1980757232_26704485" to="231887171_26704485_1980757232" />
	<connection from="163209069_1749584806_3886445946" to="109612314_3886445946_1840963728" />
	<connection from="163209069_1749584806_3886445946" to="163209069_3886445946_26704053" />
	<connection from="163209069_1749584806_3886445946" to="163209069_3886445946_1749584806" />
	<connection from="163209068_1749584807_26704049" to="163196852_26704049_292298702" />
	<connection from="163209068_1749584807_26704049" to="163208792_26704049_364309950" />
	<connection from="163209068_1749584807_26704049" to="4377781_26704049_26704052" />
	<connection from="163209068_1749584807_26704049" to="163209068_26704049_1749584807" />
	<connection from="4391568_6257217698_1350487095" to="751877383_1350487095_7028694002" />
	<connection from="4381554_26704450_26704452" to="37764670_26704452_6257217701" />
	<connection from="4381554_26704450_26704452" to="4381554_26704452_26704450" />
	<connection from="109612320_26938196_4782446443" to="109612320_4782446443_26938196" />
	<connection from="109612320_26938196_4782446443" to="109612320_4782446443_628156655" />
	<connection from="30127237_27409724_27409693" to="30127237_27409693_27409724" />
	<connection from="30127237_27409724_27409693" to="100541440_27409693_5964778576" />
	<connection from="30127237_27409724_27409693" to="100541440_27409693_364309968" />
	<connection from="892180284_26938189_4489578374" to="892180284_4489578374_3066874442" />
	<connection from="4472003_102918598_26784926" to="4472003_26784926_26784941" />
	<connection from="4472003_102918598_26784926" to="4410427_26784926_26784946" />
	<connection from="4472003_102918598_26784926" to="4472003_26784926_102918598" />
	<connection from="192158399_1992100022_408194196" to="36337926_408194196_415838099" />
	<connection from="4490166_26736200_26736199" to="4490166_26736199_26736200" />
	<connection from="23213543_251105087_8442643152" to="909288958_8442643152_277697697" />
	<connection from="23213543_251105087_8442643152" to="23213543_8442643152_251105087" />
	<connection from="4377785_400912982_4489578382" to="4377785_4489578382_6211151202" />
	<connection from="25418281_3935677404_261568494" to="25418281_261568494_3935677404" />
	<connection from="25418281_3935677404_261568494" to="157856063_261568494_26704579" />
	<connection from="480240233_27409541_6221678516" to="480240233_6221678516_27409541" />
	<connection from="480240233_27409541_6221678516" to="480240233_6221678516_102918593" />
	<connection from="139880220_26938212_21487143" to="25185008_21487143_21487142" />
	<connection from="627460043_3791061796_5313824950" to="320896581_5313824950_21487145" />
	<connection from="25485150_277697697_26908924" to="25184342_26908924_1316823342" />
	<connection from="25485150_277697697_26908924" to="41413736_26908924_5964778577" />
	<connection from="25485150_277697697_26908924" to="25485150_26908924_277697697" />
	<connection from="25485150_277697697_26908924" to="100541440_26908924_5964778576" />
	<connection from="25418281_261568494_3935677404" to="393568274_3935677404_3935677405" />
	<connection from="25418281_261568494_3935677404" to="25418281_3935677404_261568494" />
	<connection from="163209069_26704053_3886445946" to="109612314_3886445946_1840963728" />
	<connection from="163209069_26704053_3886445946" to="163209069_3886445946_26704053" />
	<connection from="163209069_26704053_3886445946" to="163209069_3886445946_1749584806" />
	<connection from="57128181_26977832_60644033" to="57128181_60644033_26977832" />
	<connection from="57128181_26977832_60644033" to="165034514_60644033_1417401017" />
	<connection from="4556844_26875284_26938189" to="892180284_26938189_4489578374" />
	<connection from="4556844_26875284_26938189" to="48372386_26938189_614419920" />
	<connection from="4556844_26875284_26938189" to="4556844_26938189_26875284" />
	<connection from="371175286_312778949_3900580941" to="371175286_3900580941_4598380609" />
	<connection from="38587211_26704523_26704494" to="38587211_26704494_26704523" />
	<connection from="38587211_26704523_26704494" to="4381166_26704494_4404288515" />
	<connection from="38587211_26704523_26704494" to="4381166_26704494_1980757232" />
	<connection from="38587211_26704523_26704494" to="109612314_26704494_1840963728" />
	<connection from="209831289_27409746_26938187" to="160343967_26938187_1723927599" />
	<connection from="209831289_27409746_26938187" to="209831289_26938187_27409746" />
	<connection from="209831289_27409746_26938187" to="160343968_26938187_802800009" />
	<connection from="152699780_27409751_27409746" to="152699780_27409746_27409751" />
	<connection from="152699780_27409751_27409746" to="209831289_27409746_26938187" />
	<connection from="163385720_413669684_1560874123" to="163385719_1560874123_272385942" />
	<connection from="163385720_413669684_1560874123" to="173219934_1560874123_26704439" />
	<connection from="4377122_1914277850_365383734" to="460206975_365383734_3935677401" />
	<connection from="4377122_1914277850_365383734" to="4377122_365383734_1914277850" />
	<connection from="371175286_3900580941_4598380609" to="371175286_4598380609_17777145" />
	<connection from="52578338_654381390_21487144" to="4403977_21487144_26704628" />
	<connection from="160346478_3791061803_4573411515" to="461905066_4573411515_26704450" />
	<connection from="160346478_3791061803_4573411515" to="160346478_4573411515_3791061803" />
	<connection from="27093182_26704524_341364246" to="27093182_341364246_26704483" />
	<connection from="27093182_26704524_341364246" to="27093182_341364246_26704524" />
	<connection from="109612314_1840963728_3886445946" to="109612314_3886445946_1840963728" />
	<connection from="109612314_1840963728_3886445946" to="163209069_3886445946_26704053" />
	<connection from="109612314_1840963728_3886445946" to="163209069_3886445946_1749584806" />
	<connection from="102698235_267620336_3066874440" to="302429276_3066874440_26727584" />
	<connection from="627460044_21487168_3804695404" to="627460044_3804695404_4911322403" />
	<connection from="4377141_27011311_3684247239" to="4377141_3684247239_32523198" />
	<connection from="4377141_27011311_3684247239" to="4377141_3684247239_27011311" />
	<connection from="392739719_3935677403_26704579" to="157856063_26704579_261568494" />
	<connection from="392739719_3935677403_26704579" to="392739719_26704579_3935677403" />
	<connection from="4377785_4489578382_6211151202" to="4377785_6211151202_26704048" />
	<connection from="4377785_4489578382_6211151202" to="742810188_6211151202_4504087203" />
	<connection from="31621011_4932289021_5784633192" to="31621011_5784633192_26736197" />
	<connection from="189354256_21677261_252864802" to="32935479_252864802_1999948496" />
	<connection from="4400423_21487142_251150123" to="4400423_251150123_667945033" />
	<connection from="27093182_26704483_341364246" to="27093182_341364246_26704483" />
	<connection from="27093182_26704483_341364246" to="27093182_341364246_26704524" />
	<connection from="4471286_26736188_2129678384" to="4471286_2129678384_26736188" />
	<connection from="4471286_26736188_2129678384" to="4471286_2129678384_6604935388" />
	<connection from="160346478_3791061803_26704448" to="160346478_26704448_3791061803" />
	<connection from="160346478_3791061803_26704448" to="118814489_26704448_27537750" />
	<connection from="160346478_3791061803_26704448" to="4381557_26704448_26704447" />
	<connection from="168896326_26875021_8474943522" to="168896326_8474943522_1287628428" />
	<connection from="168896326_26875021_8474943522" to="168896326_8474943522_26875021" />
	<connection from="4410585_26703870_26989286" to="35433912_26989286_1781654676" />
	<connection from="4410585_26703870_26989286" to="4410585_26989286_26703870" />
	<connection from="160346478_4573411515_3791061803" to="160346478_3791061803_4573411515" />
	<connection from="160346478_4573411515_3791061803" to="160346478_3791061803_26704448" />
	<connection from="4495179_27409719_417575074" to="176304474_417575074_27409695" />
	<connection from="610848017_4277479604_5784621460" to="610848023_5784621460_5784619547" />
	<connection from="610848017_4277479604_5784621460" to="610848017_5784621460_4277479604" />
	<connection from="41413736_27409696_27409695" to="41413736_27409695_1476399031" />
	<connection from="41413736_27409696_27409695" to="41413736_27409695_27409696" />
	<connection from="25185002_21487142_251106773" to="25185002_251106773_26785753" />
	<connection from="98996700_1145332282_26736189" to="98996700_26736189_1145332282" />
	<connection from="98996700_1145332282_26736189" to="821100848_26736189_5233789061" />
	<connection from="98996700_1145332282_26736189" to="821100848_26736189_6604935387" />
	<connection from="157658302_26704580_6211151203" to="157658302_6211151203_20246274" />
	<connection from="4377141_33148396_32523198" to="169658770_32523198_6868358843" />
	<connection from="4377141_33148396_32523198" to="4377141_32523198_33148396" />
	<connection from="4377141_33148396_32523198" to="4377141_32523198_3684247239" />
	<connection from="41413736_5964778577_26908924" to="25184342_26908924_1316823342" />
	<connection from="41413736_5964778577_26908924" to="41413736_26908924_5964778577" />
	<connection from="41413736_5964778577_26908924" to="25485150_26908924_277697697" />
	<connection from="41413736_5964778577_26908924" to="100541440_26908924_5964778576" />
	<connection from="30127237_8474943525_27409719" to="30127237_27409719_27409755" />
	<connection from="30127237_8474943525_27409719" to="30127237_27409719_8474943525" />
	<connection from="30127237_8474943525_27409719" to="4495179_27409719_417575074" />
	<connection from="302429346_26727584_8292571419" to="892180284_8292571419_614419921" />
	<connection from="531179970_1972845722_267620340" to="24619224_267620340_5156519028" />
	<connection from="531179970_1972845722_267620340" to="531179970_267620340_1972845722" />
	<connection from="24619225_26875021_8474943519" to="24619225_8474943519_27409694" />
	<connection from="24619225_26875021_8474943519" to="24619225_8474943519_26875021" />
	<connection from="152832868_27409696_27409724" to="30127237_27409724_27409693" />
	<connection from="152832868_27409696_27409724" to="152832871_27409724_27409746" />
	<connection from="152832868_27409696_27409724" to="30127237_27409724_27409755" />
	<connection from="152832868_27409696_27409724" to="152832868_27409724_27409696" />
	<connection from="24619223_4277479604_26938191" to="24619223_26938191_4277479604" />
	<connection from="24619223_4277479604_26938191" to="4402675_26938191_26938190" />
	<connection from="4517104_26704439_3935677403" to="4517104_3935677403_26704439" />
	<connection from="4517104_26704439_3935677403" to="392739719_3935677403_26704579" />
	<connection from="163209201_26704031_663807016" to="163209200_663807016_26704483" />
	<connection from="163209201_26704031_663807016" to="163209201_663807016_26704031" />
	<connection from="305273275_3098737940_3098737941" to="305273276_3098737941_2747936440" />
	<connection from="305273275_3098737940_3098737941" to="305273275_3098737941_3098737940" />
	<connection from="41413736_27409695_27409696" to="152832868_27409696_27409724" />
	<connection from="41413736_27409695_27409696" to="41413736_27409696_27409695" />
	<connection from="41413736_27409695_27409696" to="41413736_27409696_5964778577" />
	<connection from="24619225_27409694_1972845722" to="24619225_1972845722_27409694" />
	<connection from="24619225_27409694_1972845722" to="531179970_1972845722_267620340" />
	<connection from="610848010_5784619546_26704526" to="32909782_26704526_4782446441" />
	<connection from="610848010_5784619546_26704526" to="4515849_26704526_26875020" />
	<connection from="4400157_6020210255_1832967693" to="4400157_1832967693_26903227" />
	<connection from="4400157_6020210255_1832967693" to="4400157_1832967693_6020210255" />
	<connection from="4402675_26938191_26938190" to="4402675_26938190_26938192" />
	<connection from="688053568_6450818477_26736188" to="4515848_26736188_17777145" />
	<connection from="688053568_6450818477_26736188" to="32909782_26736188_3900580935" />
	<connection from="688053568_6450818477_26736188" to="4471286_26736188_2129678384" />
	<connection from="24619225_8474943519_27409694" to="152699780_27409694_27409751" />
	<connection from="24619225_8474943519_27409694" to="24619225_27409694_1972845722" />
	<connection from="24619225_8474943519_27409694" to="24619225_27409694_8474943519" />
	<connection from="31621014_102918593_26682519" to="4410427_26682519_26736168" />
	<connection from="31621014_102918593_26682519" to="31621014_26682519_102918593" />
	<connection from="31621014_102918593_26682519" to="168890013_26682519_6221678517" />
	<connection from="892180284_4489578374_3066874442" to="302429282_3066874442_3066874443" />
	<connection from="821100848_5233789061_26736189" to="98996700_26736189_1145332282" />
	<connection from="821100848_5233789061_26736189" to="821100848_26736189_5233789061" />
	<connection from="821100848_5233789061_26736189" to="821100848_26736189_6604935387" />
	<connection from="32909215_26704048_654381313" to="230611052_654381313_21487146" />
	<connection from="205795121_1999948496_805359477" to="66514429_805359477_3098737950" />
	<connection from="259213623_26938226_654381305" to="52578339_654381305_21487143" />
	<connection from="152833230_1656102229_654381393" to="230611053_654381393_802800009" />
	<connection from="173219934_1560874123_26704439" to="4517104_26704439_3935677403" />
	<connection from="51268850_27011311_27011308" to="66514435_27011308_1362211893" />
	<connection from="51268850_27011311_27011308" to="51268850_27011308_27011311" />
	<connection from="160343967_26938187_1723927599" to="320896580_1723927599_1723927593" />
	<connection from="4377785_6211151202_26704048" to="32909215_26704048_654381313" />
	<connection from="302429327_614419920_26938195" to="302429299_26938195_26938193" />
	<connection from="302429327_614419920_26938195" to="48372387_26938195_614419921" />
	<connection from="35433912_1781654676_26989286" to="35433912_26989286_1781654676" />
	<connection from="35433912_1781654676_26989286" to="4410585_26989286_26703870" />
	<connection from="302429264_26938192_26938196" to="4586189_26938196_26727582" />
	<connection from="302429264_26938192_26938196" to="109612320_26938196_4782446443" />
	<connection from="302429264_26938192_26938196" to="302429264_26938196_26938199" />
	<connection from="421790594_900997396_1750917592" to="163385717_1750917592_413669684" />
	<connection from="4515847_27409541_26938195" to="302429299_26938195_26938193" />
	<connection from="4515847_27409541_26938195" to="48372387_26938195_614419921" />
	<connection from="4531799_26704545_26704523" to="4531799_26704523_26704545" />
	<connection from="4531799_26704545_26704523" to="38587211_26704523_26704522" />
	<connection from="4531799_26704545_26704523" to="38587211_26704523_26704494" />
	<connection from="4586185_26875287_26784951" to="4556841_26784951_26875283" />
	<connection from="4586185_26875287_26784951" to="4556841_26784951_1228149457" />
	<connection from="4586185_26875287_26784951" to="4586185_26784951_26875287" />
	<connection from="37247537_29009134_26875275" to="37247537_26875275_29009134" />
	<connection from="37247537_29009134_26875275" to="4556843_26875275_26875283" />
	<connection from="604236912_26875274_5733935258" to="604236912_5733935258_26875274" />
	<connection from="26969521_6221665683_341364250" to="26969521_341364250_1980757232" />
	<connection from="26969521_6221665683_341364250" to="28340568_341364250_341364246" />
	<connection from="26969521_6221665683_341364250" to="26969521_341364250_6221665683" />
	<connection from="32909782_3900580935_26736200" to="32909782_26736200_5784619545" />
	<connection from="32909782_3900580935_26736200" to="4490166_26736200_26736199" />
	<connection from="109612315_5784621463_26875020" to="109612315_26875020_5784621455" />
	<connection from="109612315_5784621463_26875020" to="428660082_26875020_5784621460" />
	<connection from="87687993_17777145_4598380591" to="87687993_4598380591_27409541" />
	<connection from="87687993_17777145_4598380591" to="87687993_4598380591_17777145" />
	<connection from="32909782_5784621456_26704526" to="32909782_26704526_4782446441" />
	<connection from="32909782_5784621456_26704526" to="4515849_26704526_26875020" />
	<connection from="66514442_805359476_3098737954" to="305273279_3098737954_3098737953" />
	<connection from="168890013_26682519_6221678517" to="168890013_6221678517_26682519" />
	<connection from="168890013_26682519_6221678517" to="168890013_6221678517_26784922" />
	<connection from="50481674_26903227_1832967698" to="50481674_1832967698_26903227" />
	<connection from="50481674_26903227_1832967698" to="50481674_1832967698_26903229" />
	<connection from="4410427_26784926_26784946" to="4410427_26784946_6221678514" />
	<connection from="4410427_26784926_26784946" to="4495206_26784946_102918596" />
	<connection from="4410427_26784926_26784946" to="4495206_26784946_26784944" />
	<connection from="4472003_26784926_102918598" to="4472003_102918598_26784926" />
	<connection from="4472003_26784926_102918598" to="377570837_102918598_3809473934" />
	<connection from="152832868_27409724_27409696" to="152832868_27409696_27409724" />
	<connection from="152832868_27409724_27409696" to="41413736_27409696_27409695" />
	<connection from="152832868_27409724_27409696" to="41413736_27409696_5964778577" />
	<connection from="32909214_6257217699_26760192" to="157658304_26760192_20246274" />
	<connection from="32909214_6257217699_26760192" to="142629241_26760192_690262560" />
	<connection from="32909214_6257217699_26760192" to="4391568_26760192_6257217698" />
	<connection from="302429272_267620337_26938192" to="4571069_26938192_26727583" />
	<connection from="302429272_267620337_26938192" to="302429264_26938192_26938196" />
	<connection from="66514429_805359477_3098737950" to="305273277_3098737950_3098737951" />
	<connection from="109612315_26875020_5784621455" to="109612315_5784621455_312778949" />
	<connection from="109612315_26875020_5784621455" to="610848005_5784621455_5784621456" />
	<connection from="163209069_3886445946_26704053" to="163209069_26704053_3886445946" />
	<connection from="25418282_261568630_2784054037" to="25418282_2784054037_261568630" />
	<connection from="25418282_261568630_2784054037" to="315474030_2784054037_26704452" />
	<connection from="4409396_3951898354_4404288504" to="4409396_4404288504_3951898354" />
	<connection from="4409396_3951898354_4404288504" to="4409396_4404288504_26704043" />
	<connection from="51268850_27011308_27011311" to="4377141_27011311_3684247239" />
	<connection from="51268850_27011308_27011311" to="544626658_27011311_805359476" />
	<connection from="51268850_27011308_27011311" to="51268850_27011311_27011308" />
	<connection from="25418282_2784054037_261568630" to="25418282_261568630_2784054037" />
	<connection from="25418282_2784054037_261568630" to="393568275_261568630_3935677405" />
	<connection from="37247537_26875275_29009134" to="37247537_29009134_26875275" />
	<connection from="32909782_26704526_4782446441" to="32909782_4782446441_1254415600" />
	<connection from="259176003_26727582_4277479605" to="259176003_4277479605_26727583" />
	<connection from="929582490_341364267_3684247241" to="929582490_3684247241_27011311" />
	<connection from="909288958_8442643152_277697697" to="25485150_277697697_26908924" />
	<connection from="909288958_8442643152_277697697" to="909288958_277697697_8442643152" />
	<connection from="4495206_26784944_26784946" to="4410427_26784946_6221678514" />
	<connection from="4495206_26784944_26784946" to="4495206_26784946_102918596" />
	<connection from="4495206_26784944_26784946" to="4495206_26784946_26784944" />
	<connection from="733416790_3791061889_6868358843" to="169658770_6868358843_32523198" />
	<connection from="733416790_3791061889_6868358843" to="733416790_6868358843_3791061889" />
	<connection from="27093182_341364246_26704524" to="747453201_26704524_1321335395" />
	<connection from="4068038_4911322403_272256206" to="4068038_272256206_1335664904" />
	<connection from="161756393_1702876860_26704042" to="142629258_26704042_1737184228" />
	<connection from="25185004_26938217_21487145" to="25185003_21487145_21487148" />
	<connection from="305273275_3098737941_3098737940" to="26584167_3098737940_2715786143" />
	<connection from="305273275_3098737941_3098737940" to="305273275_3098737940_3098737941" />
	<connection from="230611051_654381284_26938207" to="860374114_26938207_26704031" />
	<connection from="305273278_3098737953_805359474" to="66514443_805359474_1999948493" />
	<connection from="35433912_26989286_1781654676" to="35433912_1781654676_26989286" />
	<connection from="35433912_26989286_1781654676" to="929287962_1781654676_1781654674" />
	<connection from="52578335_654381302_1321325636" to="133743711_1321325636_1757441427" />
	<connection from="38587211_26704494_26704523" to="4531799_26704523_26704545" />
	<connection from="38587211_26704494_26704523" to="38587211_26704523_26704522" />
	<connection from="38587211_26704494_26704523" to="38587211_26704523_26704494" />
	<connection from="87687993_27409541_4598380591" to="87687993_4598380591_27409541" />
	<connection from="87687993_27409541_4598380591" to="87687993_4598380591_17777145" />
	<connection from="32909782_4782446441_1254415600" to="109612317_1254415600_26704482" />
	<connection from="4391568_26760192_6257217698" to="4391568_6257217698_1350487095" />
	<connection from="168903522_1840963728_4404288513" to="168903522_4404288513_1840963728" />
	<connection from="168903522_1840963728_4404288513" to="168903522_4404288513_26869181" />
	<connection from="4517104_3935677403_26704439" to="4517104_26704439_3935677403" />
	<connection from="480240233_6221678516_102918593" to="31621014_102918593_26682519" />
	<connection from="480240233_6221678516_102918593" to="480240233_102918593_6221678516" />
	<connection from="480240233_6221678516_102918593" to="31621016_102918593_102918596" />
	<connection from="4403977_21487144_26704628" to="25184999_26704628_251106770" />
	<connection from="168903522_4404288513_26869181" to="168903522_26869181_4404288513" />
	<connection from="57128181_60644033_26977832" to="28241308_26977832_5964778573" />
	<connection from="57128181_60644033_26977832" to="57128181_26977832_60644033" />
	<connection from="109612320_4782446443_628156655" to="109612315_628156655_5784621463" />
	<connection from="4586182_26875286_27409601" to="4586182_27409601_26875286" />
	<connection from="4586182_26875286_27409601" to="48371933_27409601_26727584" />
	<connection from="4556841_1228149457_26784951" to="4556841_26784951_26875283" />
	<connection from="4556841_1228149457_26784951" to="4556841_26784951_1228149457" />
	<connection from="4556841_1228149457_26784951" to="4586185_26784951_26875287" />
	<connection from="169658770_32523198_6868358843" to="169658770_6868358843_32523198" />
	<connection from="169658770_32523198_6868358843" to="733416790_6868358843_3791061889" />
	<connection from="165034514_1417401017_60644033" to="57128181_60644033_26977832" />
	<connection from="165034514_1417401017_60644033" to="165034514_60644033_1417401017" />
	<connection from="4381166_26704492_4404288515" to="4381166_4404288515_26704492" />
	<connection from="4381166_26704492_4404288515" to="4381166_4404288515_26704494" />
	<connection from="4472003_26784941_26784926" to="4472003_26784926_26784941" />
	<connection from="4472003_26784941_26784926" to="4410427_26784926_26784946" />
	<connection from="4472003_26784941_26784926" to="4472003_26784926_102918598" />
	<connection from="165034514_1417401017_5194290241" to="355562350_5194290241_27537748" />
	<connection from="165034514_1417401017_5194290241" to="165034514_5194290241_1417401017" />
	<connection from="165034514_1417401017_5194290241" to="23352698_5194290241_27537749" />
	<connection from="106796258_1228149457_1228147396" to="106796258_1228147396_1228149457" />
	<connection from="106796258_1228149457_1228147396" to="106796067_1228147396_1228147392" />
	<connection from="898032017_26938178_654381390" to="52578338_654381390_21487144" />
	<connection from="32935479_252864802_1999948496" to="189354257_1999948496_1999948493" />
	<connection from="32935479_252864802_1999948496" to="205795121_1999948496_805359477" />
	<connection from="393568274_3935677405_3935677404" to="393568274_3935677404_3935677405" />
	<connection from="393568274_3935677405_3935677404" to="25418281_3935677404_261568494" />
	<connection from="393568275_261568630_3935677405" to="393568275_3935677405_261568630" />
	<connection from="393568275_261568630_3935677405" to="393568274_3935677405_3935677404" />
	<connection from="32909214_4504087203_4489578383" to="32909214_4489578383_292298701" />
	<connection from="24619223_26938191_4277479604" to="24619223_4277479604_26938191" />
	<connection from="24619223_26938191_4277479604" to="610848017_4277479604_5784621460" />
	<connection from="25184342_268050708_1316823342" to="25184342_1316823342_26908924" />
	<connection from="25184342_268050708_1316823342" to="25184342_1316823342_268050708" />
	<connection from="269636105_2747936440_313020966" to="269636104_313020966_26704450" />
	<connection from="269636105_2747936440_313020966" to="269636105_313020966_2747936440" />
	<connection from="4377141_5784595447_5181544680" to="4377141_5181544680_5784595447" />
	<connection from="168896326_1287628428_8474943522" to="168896326_8474943522_1287628428" />
	<connection from="168896326_1287628428_8474943522" to="168896326_8474943522_26875021" />
	<connection from="50481674_1832967698_26903229" to="50481674_26903229_1832967698" />
	<connection from="315474030_2784054037_26704452" to="37764670_26704452_6257217701" />
	<connection from="315474030_2784054037_26704452" to="4381554_26704452_26704450" />
	<connection from="259176003_26727583_267620336" to="102698235_267620336_3066874440" />
	<connection from="168896326_6020240415_1287628428" to="168896326_1287628428_8474943522" />
	<connection from="168896326_6020240415_1287628428" to="168896326_1287628428_6020240415" />
	<connection from="610848023_5784619547_5784621455" to="109612315_5784621455_312778949" />
	<connection from="610848023_5784619547_5784621455" to="610848005_5784621455_5784621456" />
	<connection from="48371933_26727584_27409601" to="4586182_27409601_26875286" />