<edges>
	<edge id="109612320_4782446443_26938196" from="4782446443" to="26938196" numLanes="1" shape="385788.75,5819376.32,0.00 385785.80,5819408.96,0.00 385782.39,5819446.75,0.00 385781.86,5819452.61,0.00 385797.08,5819487.16,0.00 385797.47,5819488.06,0.00 385816.39,5819531.11,0.00" speed="8.33" />
	<edge id="4409396_4404288504_3951898354" from="4404288504" to="3951898354" numLanes="1" shape="386365.93,5818614.67,0.00 386365.43,5818610.70,0.00 386364.52,5818603.43,0.00" speed="8.33" />
	<edge id="4515848_17777145_26736188" from="17777145" to="26736188" numLanes="1" shape="385267.34,5819314.75,0.00 385266.07,5819296.03,0.00" speed="13.89" />
	<edge id="31621011_5784633192_26736197" from="5784633192" to="26736197" numLanes="4" shape="384759.94,5819272.37,0.00 384755.70,5819272.03,0.00 384743.49,5819271.06,0.00 384731.96,5819270.17,0.00" speed="13.89" />
	<edge id="4400368_26704584_3791061780" from="26704584" to="3791061780" numLanes="3" shape="386088.86,5819315.48,0.00 386100.99,5819309.74,0.00 386107.03,5819306.83,0.00 386115.43,5819302.98,0.00 386120.62,5819300.13,0.00 386124.66,5819297.19,0.00 386129.02,5819293.54,0.00 386135.21,5819288.04,0.00" speed="13.89" />
	<edge id="100541440_27409693_5964778576" from="27409693" to="5964778576" numLanes="1" shape="386242.11,5819744.55,0.00 386256.78,5819771.12,0.00 386260.39,5819777.66,0.00 386287.55,5819827.71,0.00 386294.05,5819838.70,0.00" speed="13.89" />
	<edge id="37764670_6257217701_26704452" from="6257217701" to="26704452" numLanes="1" shape="386550.52,5818889.03,0.00 386554.68,5818899.31,0.00 386558.51,5818907.79,0.00 386559.97,5818911.03,0.00 386578.66,5818948.98,0.00 386584.86,5818961.02,0.00 386589.55,5818970.52,0.00 386596.58,5818984.84,0.00 386606.35,5819005.43,0.00 386632.94,5819058.74,0.00 386637.51,5819068.11,0.00 386639.49,5819072.19,0.00 386643.22,5819079.85,0.00 386644.54,5819082.57,0.00" speed="13.89" />
	<edge id="41413736_1476399031_27409695" from="1476399031" to="27409695" numLanes="1" shape="385944.48,5820104.97,0.00 385994.42,5820061.67,0.00 385998.26,5820058.34,0.00" speed="13.89" />
	<edge id="163209067_1749584808_1749584807" from="1749584808" to="1749584807" numLanes="1" shape="386008.49,5818968.86,0.00 386033.56,5818966.31,0.00" speed="8.33" />
	<edge id="320896579_1223838352_26938219" from="1223838352" to="26938219" numLanes="4" shape="385941.38,5819350.32,0.00 386020.55,5819357.66,0.00" speed="13.89" />
	<edge id="24619224_5156519028_267620336" from="5156519028" to="267620336" numLanes="2" shape="385681.65,5819638.50,0.00 385677.14,5819632.16,0.00 385673.35,5819627.28,0.00" speed="13.89" />
	<edge id="23352698_27537749_5194290241" from="27537749" to="5194290241" numLanes="1" shape="386783.75,5819425.34,0.00 386782.56,5819441.31,0.00" speed="13.89" />
	<edge id="4471286_6604935388_2129678384" from="6604935388" to="2129678384" numLanes="1" shape="385282.93,5819147.77,0.00 385277.84,5819184.62,0.00 385277.20,5819189.62,0.00 385274.48,5819211.18,0.00 385273.61,5819217.74,0.00 385272.56,5819225.60,0.00 385269.69,5819248.05,0.00 385265.20,5819283.26,0.00" speed="8.33" />
	<edge id="4377785_324753730_400912982" from="324753730" to="400912982" numLanes="3" shape="386448.33,5818951.03,0.00 386401.86,5818987.14,0.00 386383.66,5819006.72,0.00" speed="13.89" />
	<edge id="610847999_5784621456_4853814386" from="5784621456" to="4853814386" numLanes="2" shape="385631.49,5819326.82,0.00 385629.88,5819313.39,0.00 385629.64,5819298.85,0.00 385632.49,5819291.49,0.00" speed="13.89" />
	<edge id="109612315_628156655_5784621463" from="628156655" to="5784621463" numLanes="4" shape="385790.36,5819358.60,0.00 385735.41,5819353.92,0.00 385715.08,5819352.11,0.00 385711.76,5819351.81,0.00 385705.93,5819351.32,0.00 385662.20,5819347.63,0.00 385657.95,5819347.31,0.00" speed="13.89" />
	<edge id="98996700_26736189_1145332282" from="26736189" to="1145332282" numLanes="1" shape="385160.26,5819124.92,0.00 385150.35,5819215.94,0.00 385146.96,5819247.68,0.00" speed="8.33" />
	<edge id="480240233_102918593_6221678516" from="102918593" to="6221678516" numLanes="1" shape="385122.08,5819499.15,0.00 385135.93,5819499.45,0.00 385140.05,5819499.54,0.00" speed="8.33" />
	<edge id="4410427_26682519_26736168" from="26682519" to="26736168" numLanes="2" shape="385109.26,5819498.84,0.00 385110.35,5819487.36,0.00 385112.94,5819477.21,0.00 385122.34,5819456.00,0.00 385127.91,5819440.57,0.00 385131.21,5819428.71,0.00 385133.28,5819418.07,0.00 385133.66,5819415.73,0.00 385141.91,5819304.61,0.00" speed="13.89" />
	<edge id="610848023_5784621460_5784619547" from="5784621460" to="5784619547" numLanes="1" shape="385641.87,5819384.10,0.00 385637.48,5819375.32,0.00 385636.00,5819364.26,0.00" speed="13.89" />
	<edge id="320896579_26938219_667945032" from="26938219" to="667945032" numLanes="4" shape="386020.55,5819357.66,0.00 386024.86,5819357.93,0.00 386028.54,5819358.16,0.00" speed="13.89" />
	<edge id="133743711_1321325636_1757441427" from="1321325636" to="1757441427" numLanes="2" shape="386052.35,5819466.74,0.00 386037.27,5819474.93,0.00 386029.62,5819478.81,0.00 386016.31,5819485.17,0.00 385995.20,5819493.55,0.00 385986.83,5819496.54,0.00 385973.59,5819500.80,0.00 385960.57,5819504.80,0.00 385946.50,5819508.44,0.00 385931.83,5819512.13,0.00 385915.13,5819515.99,0.00 385904.25,5819518.78,0.00 385899.43,5819520.07,0.00 385882.53,5819524.63,0.00" speed="13.89" />
	<edge id="109612320_628156655_4782446443" from="628156655" to="4782446443" numLanes="1" shape="385790.36,5819358.60,0.00 385788.75,5819376.32,0.00" speed="8.33" />
	<edge id="231887171_1980757232_26704485" from="1980757232" to="26704485" numLanes="1" shape="385845.96,5818973.98,0.00 385877.28,5818974.24,0.00 385944.67,5818974.80,0.00 385955.44,5818974.92,0.00 385965.32,5818974.98,0.00 385982.46,5818971.88,0.00" speed="8.33" />
	<edge id="163209069_1749584806_3886445946" from="1749584806" to="3886445946" numLanes="1" shape="385991.30,5818952.93,0.00 386016.41,5818897.67,0.00 386050.44,5818822.78,0.00 386059.23,5818803.43,0.00" speed="8.33" />
	<edge id="163209068_1749584807_26704049" from="1749584807" to="26704049" numLanes="1" shape="386033.56,5818966.31,0.00 386163.70,5818952.19,0.00 386177.38,5818950.33,0.00" speed="8.33" />
	<edge id="4391568_6257217698_1350487095" from="6257217698" to="1350487095" numLanes="2" shape="386537.80,5818843.95,0.00 386533.80,5818812.14,0.00 386531.29,5818792.14,0.00" speed="8.33" />
	<edge id="4381554_26704450_26704452" from="26704450" to="26704452" numLanes="1" shape="386748.58,5819319.25,0.00 386749.74,5819313.85,0.00 386749.59,5819310.38,0.00 386748.70,5819306.48,0.00 386737.55,5819282.23,0.00 386702.18,5819205.49,0.00 386698.35,5819197.59,0.00 386683.47,5819166.23,0.00 386667.22,5819130.93,0.00 386658.77,5819112.54,0.00 386652.35,5819098.59,0.00 386649.00,5819091.56,0.00 386644.54,5819082.57,0.00" speed="13.89" />
	<edge id="109612320_26938196_4782446443" from="26938196" to="4782446443" numLanes="1" shape="385816.39,5819531.11,0.00 385797.47,5819488.06,0.00 385797.08,5819487.16,0.00 385781.86,5819452.61,0.00 385782.39,5819446.75,0.00 385785.80,5819408.96,0.00 385788.75,5819376.32,0.00" speed="8.33" />
	<edge id="30127237_27409724_27409693" from="27409724" to="27409693" numLanes="1" shape="386079.98,5819834.73,0.00 386129.87,5819806.48,0.00 386186.13,5819775.54,0.00 386189.54,5819773.67,0.00 386234.80,5819748.78,0.00 386242.11,5819744.55,0.00" speed="8.33" />
	<edge id="892180284_26938189_4489578374" from="26938189" to="4489578374" numLanes="2" shape="385355.25,5819800.90,0.00 385336.21,5819811.24,0.00" speed="13.89" />
	<edge id="4472003_102918598_26784926" from="102918598" to="26784926" numLanes="1" shape="385102.52,5819859.91,0.00 385090.16,5819859.49,0.00" speed="8.33" />
	<edge id="192158399_1992100022_408194196" from="1992100022" to="408194196" numLanes="4" shape="386676.26,5819432.15,0.00 386668.29,5819431.48,0.00" speed="13.89" />
	<edge id="4490166_26736200_26736199" from="26736200" to="26736199" numLanes="1" shape="385494.68,5819315.73,0.00 385480.21,5819232.30,0.00 385470.52,5819176.45,0.00 385468.95,5819165.01,0.00 385462.51,5819157.77,0.00" speed="8.33" />
	<edge id="23213543_251105087_8442643152" from="251105087" to="8442643152" numLanes="1" shape="386341.25,5819906.79,0.00 386328.93,5819889.82,0.00" speed="13.89" />
	<edge id="4377785_400912982_4489578382" from="400912982" to="4489578382" numLanes="3" shape="386383.66,5819006.72,0.00 386375.50,5819016.78,0.00" speed="13.89" />
	<edge id="25418281_3935677404_261568494" from="3935677404" to="261568494" numLanes="1" shape="386807.28,5818990.35,0.00 386830.76,5818977.03,0.00" speed="13.89" />
	<edge id="480240233_27409541_6221678516" from="27409541" to="6221678516" numLanes="1" shape="385284.94,5819504.19,0.00 385227.38,5819501.64,0.00 385224.96,5819501.53,0.00 385204.13,5819500.92,0.00 385140.05,5819499.54,0.00" speed="8.33" />
	<edge id="139880220_26938212_21487143" from="26938212" to="21487143" numLanes="4" shape="386074.20,5819428.45,0.00 386068.17,5819423.44,0.00 386063.52,5819418.54,0.00 386058.53,5819412.38,0.00" speed="13.89" />
	<edge id="627460043_3791061796_5313824950" from="3791061796" to="5313824950" numLanes="3" shape="386224.17,5819393.84,0.00 386219.26,5819393.82,0.00 386215.59,5819393.92,0.00" speed="13.89" />
	<edge id="25485150_277697697_26908924" from="277697697" to="26908924" numLanes="2" shape="386312.50,5819867.18,0.00 386304.24,5819855.90,0.00" speed="13.89" />
	<edge id="25418281_261568494_3935677404" from="261568494" to="3935677404" numLanes="1" shape="386830.76,5818977.03,0.00 386807.28,5818990.35,0.00" speed="13.89" />
	<edge id="163209069_26704053_3886445946" from="26704053" to="3886445946" numLanes="1" shape="386109.97,5818685.89,0.00 386106.59,5818696.51,0.00 386103.79,5818707.01,0.00 386094.08,5818728.04,0.00 386063.71,5818793.73,0.00 386059.23,5818803.43,0.00" speed="8.33" />
	<edge id="57128181_26977832_60644033" from="26977832" to="60644033" numLanes="1" shape="386729.28,5819522.96,0.00 386754.40,5819498.41,0.00 386759.65,5819493.39,0.00 386772.62,5819481.57,0.00 386773.75,5819480.20,0.00 386775.64,5819477.91,0.00 386779.73,5819471.89,0.00" speed="13.89" />
	<edge id="4556844_26875284_26938189" from="26875284" to="26938189" numLanes="1" shape="385430.92,5819979.20,0.00 385423.64,5819956.15,0.00 385413.19,5819926.79,0.00 385407.43,5819912.77,0.00 385398.72,5819891.60,0.00 385359.45,5819808.39,0.00 385355.25,5819800.90,0.00" speed="8.33" />
	<edge id="371175286_312778949_3900580941" from="312778949" to="3900580941" numLanes="4" shape="385499.92,5819334.16,0.00 385425.23,5819327.72,0.00" speed="13.89" />
	<edge id="38587211_26704523_26704494" from="26704523" to="26704494" numLanes="1" shape="385713.07,5818840.88,0.00 385820.12,5818828.14,0.00 385828.55,5818827.29,0.00" speed="8.33" />
	<edge id="209831289_27409746_26938187" from="27409746" to="26938187" numLanes="1" shape="385994.24,5819675.37,0.00 386067.06,5819637.04,0.00 386132.38,5819603.69,0.00 386151.25,5819594.05,0.00 386156.29,5819591.47,0.00" speed="8.33" />
	<edge id="152699780_27409751_27409746" from="27409751" to="27409746" numLanes="1" shape="385877.55,5819736.72,0.00 385978.25,5819683.70,0.00 385989.34,5819677.92,0.00 385994.24,5819675.37,0.00" speed="8.33" />
	<edge id="163385720_413669684_1560874123" from="413669684" to="1560874123" numLanes="2" shape="386973.69,5818876.27,0.00 386974.33,5818880.61,0.00 386973.92,5818886.40,0.00 386972.15,5818891.97,0.00 386969.09,5818897.51,0.00 386964.09,5818901.90,0.00 386957.61,5818905.18,0.00" speed="5.56" />
	<edge id="4377122_1914277850_365383734" from="1914277850" to="365383734" numLanes="1" shape="387219.62,5819771.94,0.00 387242.79,5819804.50,0.00 387253.84,5819820.04,0.00 387279.95,5819911.52,0.00" speed="13.89" />
	<edge id="371175286_3900580941_4598380609" from="3900580941" to="4598380609" numLanes="4" shape="385425.23,5819327.72,0.00 385309.42,5819318.19,0.00 385284.63,5819316.14,0.00 385276.35,5819315.61,0.00" speed="13.89" />
	<edge id="52578338_654381390_21487144" from="654381390" to="21487144" numLanes="3" shape="386144.40,5819455.12,0.00 386139.09,5819448.66,0.00 386133.50,5819445.38,0.00 386126.19,5819443.67,0.00" speed="13.89" />
	<edge id="160346478_3791061803_4573411515" from="3791061803" to="4573411515" numLanes="2" shape="386694.66,5819399.78,0.00 386710.83,5819357.60,0.00 386711.32,5819356.98,0.00 386717.92,5819347.69,0.00" speed="13.89" />
	<edge id="27093182_26704524_341364246" from="26704524" to="341364246" numLanes="1" shape="385619.00,5819173.24,0.00 385636.41,5819178.21,0.00 385710.98,5819184.25,0.00 385754.17,5819187.75,0.00" speed="8.33" />
	<edge id="109612314_1840963728_3886445946" from="1840963728" to="3886445946" numLanes="1" shape="386001.82,5818807.85,0.00 386047.01,5818804.29,0.00 386059.23,5818803.43,0.00" speed="8.33" />
	<edge id="102698235_267620336_3066874440" from="267620336" to="3066874440" numLanes="2" shape="385673.35,5819627.28,0.00 385665.99,5819631.26,0.00 385631.53,5819649.91,0.00 385610.37,5819661.47,0.00 385596.13,5819669.83,0.00" speed="13.89" />
	<edge id="627460044_21487168_3804695404" from="21487168" to="3804695404" numLanes="3" shape="386186.38,5819349.05,0.00 386199.66,5819362.17,0.00 386205.26,5819366.57,0.00 386214.17,5819372.28,0.00" speed="13.89" />
	<edge id="4377141_27011311_3684247239" from="27011311" to="3684247239" numLanes="1" shape="387216.50,5819478.43,0.00 387215.05,5819493.47,0.00 387214.50,5819498.32,0.00" speed="8.33" />
	<edge id="392739719_3935677403_26704579" from="3935677403" to="26704579" numLanes="1" shape="386903.34,5818935.89,0.00 386864.33,5818957.93,0.00" speed="13.89" />
	<edge id="4377785_4489578382_6211151202" from="4489578382" to="6211151202" numLanes="3" shape="386375.50,5819016.78,0.00 386373.57,5819019.15,0.00 386334.68,5819066.39,0.00 386308.71,5819097.56,0.00 386235.02,5819186.65,0.00" speed="13.89" />
	<edge id="31621011_4932289021_5784633192" from="4932289021" to="5784633192" numLanes="4" shape="385005.25,5819292.78,0.00 385000.36,5819292.38,0.00 384987.84,5819291.39,0.00 384973.61,5819290.18,0.00 384959.64,5819288.98,0.00 384836.39,5819278.73,0.00 384759.94,5819272.37,0.00" speed="13.89" />
	<edge id="189354256_21677261_252864802" from="21677261" to="252864802" numLanes="2" shape="387057.26,5819464.93,0.00 387057.98,5819448.99,0.00" speed="13.89" />
	<edge id="4400423_21487142_251150123" from="21487142" to="251150123" numLanes="3" shape="386047.10,5819393.07,0.00 386040.89,5819387.74,0.00 386034.17,5819382.11,0.00 386030.52,5819379.86,0.00" speed="13.89" />
	<edge id="27093182_26704483_341364246" from="26704483" to="341364246" numLanes="1" shape="385870.67,5819198.17,0.00 385754.17,5819187.75,0.00" speed="8.33" />
	<edge id="4471286_26736188_2129678384" from="26736188" to="2129678384" numLanes="1" shape="385266.07,5819296.03,0.00 385265.20,5819283.26,0.00" speed="8.33" />
	<edge id="160346478_3791061803_26704448" from="3791061803" to="26704448" numLanes="2" shape="386694.66,5819399.78,0.00 386693.03,5819403.73,0.00 386690.50,5819409.72,0.00 386688.43,5819417.71,0.00" speed="13.89" />
	<edge id="168896326_26875021_8474943522" from="26875021" to="8474943522" numLanes="1" shape="385850.19,5819967.17,0.00 385854.18,5819975.32,0.00 385855.90,5819978.86,0.00" speed="8.33" />
	<edge id="4410585_26703870_26989286" from="26703870" to="26989286" numLanes="1" shape="387189.70,5819732.33,0.00 387153.07,5819841.26,0.00 387127.87,5819916.21,0.00" speed="8.33" />
	<edge id="160346478_4573411515_3791061803" from="4573411515" to="3791061803" numLanes="2" shape="386717.92,5819347.69,0.00 386711.32,5819356.98,0.00 386710.83,5819357.60,0.00 386694.66,5819399.78,0.00" speed="13.89" />
	<edge id="4495179_27409719_417575074" from="27409719" to="417575074" numLanes="2" shape="385927.87,5819924.11,0.00 385934.69,5819934.33,0.00 385937.82,5819938.40,0.00 385941.67,5819941.71,0.00 385945.14,5819943.37,0.00 385948.47,5819945.39,0.00 385951.37,5819948.50,0.00 385967.22,5819985.06,0.00" speed="8.33" />
	<edge id="610848017_4277479604_5784621460" from="4277479604" to="5784621460" numLanes="1" shape="385656.27,5819547.07,0.00 385654.22,5819523.82,0.00 385653.82,5819519.29,0.00 385650.59,5819482.43,0.00 385644.27,5819411.14,0.00 385641.87,5819384.10,0.00" speed="13.89" />
	<edge id="41413736_27409696_27409695" from="27409696" to="27409695" numLanes="1" shape="386142.48,5819948.58,0.00 386092.61,5819982.44,0.00 386066.12,5820004.24,0.00 386030.38,5820033.22,0.00 386021.93,5820039.58,0.00 385998.26,5820058.34,0.00" speed="13.89" />
	<edge id="25185002_21487142_251106773" from="21487142" to="251106773" numLanes="4" shape="386047.10,5819393.07,0.00 386046.18,5819385.00,0.00 386045.64,5819378.82,0.00 386045.99,5819372.75,0.00 386046.54,5819367.88,0.00" speed="13.89" />
	<edge id="98996700_1145332282_26736189" from="1145332282" to="26736189" numLanes="1" shape="385146.96,5819247.68,0.00 385150.35,5819215.94,0.00 385160.26,5819124.92,0.00" speed="8.33" />
	<edge id="157658302_26704580_6211151203" from="26704580" to="6211151203" numLanes="3" shape="386738.80,5818721.05,0.00 386719.96,5818736.45,0.00 386688.35,5818761.55,0.00 386660.21,5818783.89,0.00 386648.55,5818793.06,0.00 386637.55,5818801.72,0.00 386619.72,5818816.34,0.00 386586.60,5818842.26,0.00 386562.06,5818862.16,0.00" speed="13.89" />
	<edge id="4377141_33148396_32523198" from="33148396" to="32523198" numLanes="1" shape="387279.62,5819686.22,0.00 387238.21,5819637.07,0.00 387232.22,5819630.07,0.00 387231.77,5819629.27,0.00 387229.34,5819624.39,0.00 387228.05,5819621.62,0.00 387225.00,5819615.85,0.00 387219.43,5819602.52,0.00 387215.35,5819590.79,0.00 387214.83,5819588.85,0.00 387214.33,5819586.41,0.00 387211.98,5819574.99,0.00 387211.33,5819569.99,0.00" speed="8.33" />
	<edge id="41413736_5964778577_26908924" from="5964778577" to="26908924" numLanes="1" shape="386289.79,5819864.70,0.00 386293.19,5819862.63,0.00 386304.24,5819855.90,0.00" speed="13.89" />
	<edge id="30127237_8474943525_27409719" from="8474943525" to="27409719" numLanes="1" shape="385861.75,5819960.75,0.00 385927.87,5819924.11,0.00" speed="8.33" />
	<edge id="302429346_26727584_8292571419" from="26727584" to="8292571419" numLanes="2" shape="385562.62,5819688.29,0.00 385514.55,5819714.33,0.00 385513.68,5819714.80,0.00 385474.07,5819736.27,0.00 385463.93,5819741.76,0.00 385430.12,5819760.13,0.00 385423.68,5819763.63,0.00 385395.68,5819778.86,0.00 385377.82,5819788.57,0.00 385369.08,5819793.34,0.00" speed="13.89" />
	<edge id="531179970_1972845722_267620340" from="1972845722" to="267620340" numLanes="2" shape="385688.78,5819651.38,0.00 385683.13,5819640.14,0.00" speed="13.89" />
	<edge id="24619225_26875021_8474943519" from="26875021" to="8474943519" numLanes="1" shape="385850.19,5819967.17,0.00 385842.47,5819952.06,0.00 385840.13,5819947.48,0.00" speed="13.89" />
	<edge id="152832868_27409696_27409724" from="27409696" to="27409724" numLanes="1" shape="386142.48,5819948.58,0.00 386079.98,5819834.73,0.00" speed="8.33" />
	<edge id="24619223_4277479604_26938191" from="4277479604" to="26938191" numLanes="1" shape="385656.27,5819547.07,0.00 385658.10,5819568.98,0.00 385658.69,5819576.02,0.00" speed="13.89" />
	<edge id="4517104_26704439_3935677403" from="26704439" to="3935677403" numLanes="1" shape="386939.95,5818914.85,0.00 386933.61,5818918.60,0.00 386927.96,5818921.93,0.00 386914.02,5818929.64,0.00 386903.34,5818935.89,0.00" speed="13.89" />
	<edge id="163209201_26704031_663807016" from="26704031" to="663807016" numLanes="1" shape="386178.25,5819233.03,0.00 386159.66,5819224.05,0.00 386141.00,5819222.38,0.00 386134.72,5819221.82,0.00" speed="8.33" />
	<edge id="305273275_3098737940_3098737941" from="3098737940" to="3098737941" numLanes="1" shape="387019.28,5819216.60,0.00 387003.59,5819223.09,0.00" speed="8.33" />
	<edge id="41413736_27409695_27409696" from="27409695" to="27409696" numLanes="1" shape="385998.26,5820058.34,0.00 386021.93,5820039.58,0.00 386030.38,5820033.22,0.00 386066.12,5820004.24,0.00 386092.61,5819982.44,0.00 386142.48,5819948.58,0.00" speed="13.89" />
	<edge id="24619225_27409694_1972845722" from="27409694" to="1972845722" numLanes="1" shape="385762.47,5819795.53,0.00 385740.99,5819753.51,0.00 385710.95,5819695.42,0.00 385705.62,5819684.37,0.00 385699.95,5819672.93,0.00 385693.22,5819660.03,0.00 385692.45,5819658.53,0.00 385688.78,5819651.38,0.00" speed="13.89" />
	<edge id="610848010_5784619546_26704526" from="5784619546" to="26704526" numLanes="2" shape="385638.73,5819308.98,0.00 385639.17,5819313.85,0.00 385640.38,5819327.59,0.00" speed="13.89" />
	<edge id="4400157_6020210255_1832967693" from="6020210255" to="1832967693" numLanes="1" shape="386001.78,5820158.64,0.00 386043.69,5820122.79,0.00 386047.36,5820119.24,0.00 386050.06,5820114.69,0.00 386051.88,5820110.14,0.00 386053.65,5820105.69,0.00 386055.32,5820101.47,0.00 386057.37,5820097.80,0.00 386063.55,5820090.89,0.00 386091.58,5820067.12,0.00 386116.27,5820045.74,0.00 386137.76,5820029.34,0.00 386158.69,5820015.83,0.00 386178.56,5820004.36,0.00 386215.40,5819982.92,0.00 386243.41,5819968.07,0.00 386286.78,5819943.35,0.00 386313.79,5819932.06,0.00 386334.53,5819924.40,0.00" speed="13.89" />
	<edge id="4402675_26938191_26938190" from="26938191" to="26938190" numLanes="2" shape="385658.69,5819576.02,0.00 385661.15,5819579.21,0.00 385663.46,5819581.94,0.00 385666.76,5819593.51,0.00" speed="13.89" />
	<edge id="688053568_6450818477_26736188" from="6450818477" to="26736188" numLanes="4" shape="385159.99,5819287.28,0.00 385248.62,5819294.62,0.00 385266.07,5819296.03,0.00" speed="13.89" />
	<edge id="24619225_8474943519_27409694" from="8474943519" to="27409694" numLanes="1" shape="385840.13,5819947.48,0.00 385836.26,5819939.92,0.00 385835.51,5819938.44,0.00 385834.11,5819935.70,0.00 385781.20,5819832.17,0.00 385762.47,5819795.53,0.00" speed="13.89" />
	<edge id="31621014_102918593_26682519" from="102918593" to="26682519" numLanes="1" shape="385122.08,5819499.15,0.00 385109.26,5819498.84,0.00" speed="13.89" />
	<edge id="892180284_4489578374_3066874442" from="4489578374" to="3066874442" numLanes="2" shape="385336.21,5819811.24,0.00 385333.80,5819812.54,0.00 385288.30,5819837.88,0.00 385265.55,5819850.54,0.00 385252.51,5819857.98,0.00 385183.06,5819897.64,0.00" speed="13.89" />
	<edge id="821100848_5233789061_26736189" from="5233789061" to="26736189" numLanes="1" shape="384951.76,5819106.22,0.00 384961.62,5819106.49,0.00 385004.41,5819107.62,0.00 385016.21,5819109.31,0.00 385024.42,5819110.04,0.00 385069.68,5819115.30,0.00 385077.31,5819115.89,0.00 385080.11,5819116.20,0.00 385096.46,5819118.03,0.00 385157.06,5819124.49,0.00 385160.26,5819124.92,0.00" speed="8.33" />
	<edge id="32909215_26704048_654381313" from="26704048" to="654381313" numLanes="4" shape="386161.97,5819290.68,0.00 386160.18,5819295.13,0.00 386159.12,5819299.69,0.00" speed="13.89" />
	<edge id="205795121_1999948496_805359477" from="1999948496" to="805359477" numLanes="3" shape="387066.01,5819449.72,0.00 387074.45,5819450.45,0.00" speed="13.89" />
	<edge id="259213623_26938226_654381305" from="26938226" to="654381305" numLanes="3" shape="386052.98,5819444.29,0.00 386055.36,5819440.38,0.00 386057.66,5819436.61,0.00" speed="13.89" />
	<edge id="152833230_1656102229_654381393" from="1656102229" to="654381393" numLanes="2" shape="386168.04,5819448.36,0.00 386168.48,5819450.99,0.00" speed="13.89" />
	<edge id="173219934_1560874123_26704439" from="1560874123" to="26704439" numLanes="2" shape="386957.61,5818905.18,0.00 386951.30,5818908.75,0.00 386939.95,5818914.85,0.00" speed="5.56" />
	<edge id="51268850_27011311_27011308" from="27011311" to="27011308" numLanes="1" shape="387216.50,5819478.43,0.00 387217.54,5819463.29,0.00" speed="13.89" />
	<edge id="160343967_26938187_1723927599" from="26938187" to="1723927599" numLanes="2" shape="386156.29,5819591.47,0.00 386154.42,5819585.66,0.00 386153.89,5819581.00,0.00 386153.47,5819574.77,0.00 386153.57,5819561.58,0.00 386154.21,5819538.15,0.00 386156.98,5819507.97,0.00 386157.34,5819501.93,0.00 386157.39,5819494.95,0.00" speed="13.89" />
	<edge id="4377785_6211151202_26704048" from="6211151202" to="26704048" numLanes="3" shape="386235.02,5819186.65,0.00 386222.31,5819201.76,0.00 386217.36,5819208.06,0.00 386201.87,5819225.97,0.00 386193.65,5819237.54,0.00 386189.18,5819243.55,0.00 386179.08,5819259.17,0.00 386173.07,5819268.45,0.00 386166.86,5819281.82,0.00 386161.97,5819290.68,0.00" speed="13.89" />
	<edge id="302429327_614419920_26938195" from="614419920" to="26938195" numLanes="3" shape="385348.30,5819788.52,0.00 385359.41,5819782.53,0.00" speed="13.89" />
	<edge id="35433912_1781654676_26989286" from="1781654676" to="26989286" numLanes="1" shape="387048.57,5819835.85,0.00 387051.48,5819842.18,0.00 387054.27,5819848.01,0.00 387058.70,5819854.66,0.00 387087.35,5819881.51,0.00 387127.87,5819916.21,0.00" speed="8.33" />
	<edge id="302429264_26938192_26938196" from="26938192" to="26938196" numLanes="2" shape="385672.63,5819608.83,0.00 385680.40,5819604.67,0.00 385749.49,5819567.64,0.00 385816.39,5819531.11,0.00" speed="13.89" />
	<edge id="421790594_900997396_1750917592" from="900997396" to="1750917592" numLanes="2" shape="386876.15,5818689.98,0.00 386883.92,5818697.61,0.00 386890.79,5818707.70,0.00 386899.03,5818723.82,0.00 386922.24,5818769.23,0.00" speed="5.56" />
	<edge id="4515847_27409541_26938195" from="27409541" to="26938195" numLanes="2" shape="385284.94,5819504.19,0.00 385305.50,5819650.62,0.00 385312.75,5819697.85,0.00 385316.72,5819705.04,0.00 385359.41,5819782.53,0.00" speed="8.33" />
	<edge id="4531799_26704545_26704523" from="26704545" to="26704523" numLanes="1" shape="385694.88,5818680.50,0.00 385709.59,5818810.29,0.00 385713.07,5818840.88,0.00" speed="8.33" />
	<edge id="302429316_1163349160_26784912" from="1163349160" to="26784912" numLanes="4" shape="385115.59,5819936.15,0.00 385099.17,5819945.02,0.00" speed="13.89" />
	<edge id="4586185_26875287_26784951" from="26875287" to="26784951" numLanes="1" shape="385235.39,5820228.22,0.00 385219.50,5820131.78,0.00 385218.55,5820126.04,0.00 385210.80,5820079.01,0.00 385205.15,5820036.35,0.00" speed="8.33" />
	<edge id="37247537_29009134_26875275" from="29009134" to="26875275" numLanes="1" shape="385472.48,5820139.69,0.00 385470.95,5820126.96,0.00 385468.45,5820106.20,0.00 385461.28,5820036.76,0.00" speed="8.33" />
	<edge id="604236912_26875274_5733935258" from="26875274" to="5733935258" numLanes="1" shape="385583.42,5820009.21,0.00 385626.91,5819998.35,0.00 385638.05,5819995.20,0.00" speed="8.33" />
	<edge id="26969521_6221665683_341364250" from="6221665683" to="341364250" numLanes="1" shape="385610.68,5818974.99,0.00 385631.09,5818975.04,0.00 385647.50,5818975.06,0.00 385663.87,5818975.11,0.00 385731.49,5818975.24,0.00" speed="8.33" />
	<edge id="32909782_3900580935_26736200" from="3900580935" to="26736200" numLanes="4" shape="385426.58,5819310.24,0.00 385458.56,5819312.22,0.00 385494.68,5819315.73,0.00" speed="13.89" />
	<edge id="109612315_5784621463_26875020" from="5784621463" to="26875020" numLanes="4" shape="385657.95,5819347.31,0.00 385652.66,5819346.91,0.00 385642.05,5819345.93,0.00" speed="13.89" />
	<edge id="87687993_17777145_4598380591" from="17777145" to="4598380591" numLanes="1" shape="385267.34,5819314.75,0.00 385268.26,5819328.27,0.00" speed="8.33" />
	<edge id="32909782_5784621456_26704526" from="5784621456" to="26704526" numLanes="4" shape="385631.49,5819326.82,0.00 385640.38,5819327.59,0.00" speed="13.89" />
	<edge id="66514442_805359476_3098737954" from="805359476" to="3098737954" numLanes="3" shape="387107.91,5819469.16,0.00 387104.72,5819468.89,0.00" speed="13.89" />
	<edge id="168890013_26682519_6221678517" from="26682519" to="6221678517" numLanes="1" shape="385109.26,5819498.84,0.00 385096.58,5819498.32,0.00 385093.40,5819498.20,0.00" speed="8.33" />
	<edge id="50481674_26903227_1832967698" from="26903227" to="1832967698" numLanes="1" shape="386349.20,5819917.75,0.00 386355.08,5819927.97,0.00 386357.14,5819931.56,0.00" speed="13.89" />
	<edge id="4410427_26784926_26784946" from="26784926" to="26784946" numLanes="2" shape="385090.16,5819859.49,0.00 385096.49,5819747.60,0.00 385096.69,5819742.34,0.00 385096.76,5819740.38,0.00 385098.59,5819684.22,0.00 385099.94,5819653.84,0.00" speed="13.89" />
	<edge id="4472003_26784926_102918598" from="26784926" to="102918598" numLanes="1" shape="385090.16,5819859.49,0.00 385102.52,5819859.91,0.00" speed="8.33" />
	<edge id="66514435_27011308_1362211893" from="27011308" to="1362211893" numLanes="3" shape="387217.54,5819463.29,0.00 387232.02,5819464.61,0.00 387234.85,5819464.87,0.00 387673.05,5819504.90,0.00 387849.06,5819519.95,0.00" speed="13.89" />
	<edge id="152832868_27409724_27409696" from="27409724" to="27409696" numLanes="1" shape="386079.98,5819834.73,0.00 386142.48,5819948.58,0.00" speed="8.33" />
	<edge id="32909214_6257217699_26760192" from="6257217699" to="26760192" numLanes="2" shape="386525.94,5818872.33,0.00 386528.93,5818869.96,0.00 386539.96,5818861.27,0.00" speed="13.89" />
	<edge id="302429272_267620337_26938192" from="267620337" to="26938192" numLanes="3" shape="385665.33,5819613.17,0.00 385672.63,5819608.83,0.00" speed="13.89" />
	<edge id="66514429_805359477_3098737950" from="805359477" to="3098737950" numLanes="3" shape="387074.45,5819450.45,0.00 387076.42,5819450.62,0.00" speed="13.89" />
	<edge id="109612315_26875020_5784621455" from="26875020" to="5784621455" numLanes="4" shape="385642.05,5819345.93,0.00 385633.70,5819345.16,0.00" speed="13.89" />
	<edge id="163209069_3886445946_26704053" from="3886445946" to="26704053" numLanes="1" shape="386059.23,5818803.43,0.00 386063.71,5818793.73,0.00 386094.08,5818728.04,0.00 386103.79,5818707.01,0.00 386106.59,5818696.51,0.00 386109.97,5818685.89,0.00" speed="8.33" />
	<edge id="25418282_261568630_2784054037" from="261568630" to="2784054037" numLanes="1" shape="386721.69,5819039.86,0.00 386713.14,5819044.82,0.00" speed="13.89" />