<?xml version="1.0" encoding="UTF-8"?>

<!-- generated on 2021-06-14 19:52:48 by Eclipse SUMO netconvert Version 1.9.2
<configuration xmlns:xsi="http://www.w3.org/2001/XMLSchema-instance" xsi:noNamespaceSchemaLocation="http://sumo.dlr.de/xsd/netconvertConfiguration.xsd">

    <input>
        <node-files value="/home/onqi/Documents/cid-workshop2/ernstreuter/sumo/ernstreuter.nod.xml"/>
        <edge-files value="/home/onqi/Documents/cid-workshop2/ernstreuter/sumo/ernstreuter.edg.xml"/>
        <connection-files value="/home/onqi/Documents/cid-workshop2/ernstreuter/sumo/ernstreuter.con.xml"/>
    </input>

    <output>
        <output-file value="/home/onqi/Documents/cid-workshop2/ernstreuter/sumo/ernstreuter.net.xml"/>
    </output>

    <report>
        <aggregate-warnings value="5"/>
    </report>

</configuration>
-->

<net version="1.9" junctionCornerDetail="5" limitTurnSpeed="5.50" xmlns:xsi="http://www.w3.org/2001/XMLSchema-instance" xsi:noNamespaceSchemaLocation="http://sumo.dlr.de/xsd/net_file.xsd">

    <location netOffset="-384731.96,-5818603.43" convBoundary="0.00,0.00,3117.10,1792.56" origBoundary="384731.96,5818603.43,387849.06,5820395.99" projParameter="!"/>

    <edge id=":102918588_0" function="internal">
        <lane id=":102918588_0_0" index="0" speed="6.48" length="9.03" shape="435.70,714.49 433.22,714.65 431.40,715.56 430.23,717.23 429.72,719.65"/>
        <lane id=":102918588_0_1" index="1" speed="7.30" length="11.75" shape="435.70,714.49 431.83,714.54 429.01,715.38 427.24,717.01 426.53,719.45"/>
    </edge>
    <edge id=":102918588_2" function="internal">
        <lane id=":102918588_2_0" index="0" speed="13.89" length="14.40" shape="435.70,714.49 421.34,713.34"/>
        <lane id=":102918588_2_1" index="1" speed="13.89" length="14.40" shape="435.95,711.31 421.60,710.15"/>
        <lane id=":102918588_2_2" index="2" speed="13.89" length="14.40" shape="436.21,708.12 421.86,706.96"/>
        <lane id=":102918588_2_3" index="3" speed="13.89" length="14.40" shape="436.47,704.93 422.12,703.77"/>
    </edge>
    <edge id=":102918593_0" function="internal">
        <lane id=":102918593_0_0" index="0" speed="7.05" length="10.51" shape="401.96,897.58 398.82,897.87 396.53,898.90 395.10,900.67 394.51,903.18"/>
    </edge>
    <edge id=":102918593_1" function="internal">
        <lane id=":102918593_1_0" index="0" speed="11.11" length="15.98" shape="401.96,897.58 385.98,897.22"/>
    </edge>
    <edge id=":102918593_2" function="internal">
        <lane id=":102918593_2_0" index="0" speed="3.65" length="4.67" shape="401.96,897.58 400.77,896.75 400.39,895.94 400.81,895.15 402.03,894.38"/>
    </edge>
    <edge id=":102918593_3" function="internal">
        <lane id=":102918593_3_0" index="0" speed="5.91" length="9.10" shape="397.95,888.38 397.39,890.96 397.88,892.81 399.43,893.95 402.03,894.38"/>
    </edge>
    <edge id=":102918593_4" function="internal">
        <lane id=":102918593_4_0" index="0" speed="13.89" length="15.77" shape="397.95,888.38 396.36,892.63 395.40,895.61 394.86,898.67 394.51,903.18"/>
        <lane id=":102918593_4_1" index="1" speed="13.89" length="15.77" shape="394.95,887.28 393.26,891.79 392.25,894.95 391.68,898.21 391.32,903.00"/>
    </edge>
    <edge id=":102918593_6" function="internal">
        <lane id=":102918593_6_0" index="0" speed="9.17" length="14.17" shape="394.95,887.28 392.99,891.67 390.84,894.80 388.51,896.65 385.98,897.22"/>
    </edge>
    <edge id=":102918593_7" function="internal">
        <lane id=":102918593_7_0" index="0" speed="11.11" length="15.97" shape="386.06,894.02 402.03,894.38"/>
    </edge>
    <edge id=":102918593_8" function="internal">
        <lane id=":102918593_8_0" index="0" speed="7.26" length="11.78" shape="386.06,894.02 388.54,894.63 390.25,896.34 391.17,899.12 391.32,903.00"/>
    </edge>
    <edge id=":102918593_9" function="internal">
        <lane id=":102918593_9_0" index="0" speed="3.65" length="4.67" shape="386.06,894.02 387.24,894.85 387.62,895.66 387.20,896.45 385.98,897.22"/>
    </edge>
    <edge id=":102918596_0" function="internal">
        <lane id=":102918596_0_0" index="0" speed="13.89" length="9.35" shape="386.33,1046.09 385.83,1055.39"/>
        <lane id=":102918596_0_1" index="1" speed="13.89" length="9.35" shape="383.14,1045.89 382.63,1055.25"/>
    </edge>
    <edge id=":102918596_2" function="internal">
        <lane id=":102918596_2_0" index="0" speed="6.23" length="7.81" shape="383.14,1045.89 382.77,1048.60 382.06,1050.53 381.00,1051.69 379.61,1052.07"/>
    </edge>
    <edge id=":102918596_3" function="internal">
        <lane id=":102918596_3_0" index="0" speed="6.04" length="7.87" shape="379.62,1048.87 381.04,1049.28 382.02,1050.47 382.55,1052.47 382.63,1055.25"/>
    </edge>
    <edge id=":102918596_4" function="internal">
        <lane id=":102918596_4_0" index="0" speed="3.65" length="4.67" shape="379.62,1048.87 380.82,1049.68 381.22,1050.48 380.81,1051.28 379.61,1052.07"/>
    </edge>
    <edge id=":102918598_0" function="internal">
        <lane id=":102918598_0_0" index="0" speed="13.89" length="9.34" shape="375.62,1252.06 375.18,1261.36"/>
        <lane id=":102918598_0_1" index="1" speed="13.89" length="9.34" shape="372.42,1251.88 371.98,1261.24"/>
    </edge>
    <edge id=":102918598_2" function="internal">
        <lane id=":102918598_2_0" index="0" speed="6.13" length="7.75" shape="372.42,1251.88 372.07,1254.61 371.39,1256.54 370.36,1257.68 368.99,1258.03"/>
    </edge>
    <edge id=":102918598_3" function="internal">
        <lane id=":102918598_3_0" index="0" speed="6.08" length="7.77" shape="369.10,1254.83 370.45,1255.27 371.38,1256.48 371.89,1258.47 371.98,1261.24"/>
    </edge>
    <edge id=":102918598_4" function="internal">
        <lane id=":102918598_4_0" index="0" speed="3.65" length="4.67" shape="369.10,1254.83 370.28,1255.67 370.65,1256.48 370.22,1257.27 368.99,1258.03"/>
    </edge>
    <edge id=":1145332275_0" function="internal">
        <lane id=":1145332275_0_0" index="0" speed="8.33" length="0.31" shape="415.24,657.49 415.20,657.79"/>
    </edge>
    <edge id=":1145332275_1" function="internal">
        <lane id=":1145332275_1_0" index="0" speed="8.33" length="0.28" shape="412.02,657.44 412.05,657.16"/>
    </edge>
    <edge id=":1145332282_0" function="internal">
        <lane id=":1145332282_0_0" index="0" speed="8.33" length="0.29" shape="416.61,644.27 416.58,644.56"/>
    </edge>
    <edge id=":1145332282_1" function="internal">
        <lane id=":1145332282_1_0" index="0" speed="8.33" length="0.30" shape="413.39,644.23 413.42,643.93"/>
    </edge>
    <edge id=":1163349160_0" function="internal">
        <lane id=":1163349160_0_0" index="0" speed="13.89" length="0.11" shape="389.12,1342.48 388.95,1342.57"/>
        <lane id=":1163349160_0_1" index="1" speed="13.89" length="0.11" shape="387.55,1339.69 387.43,1339.76"/>
        <lane id=":1163349160_0_2" index="2" speed="13.89" length="0.11" shape="385.98,1336.90 385.91,1336.94"/>
        <lane id=":1163349160_0_3" index="3" speed="13.89" length="0.11" shape="384.41,1334.11 384.39,1334.13"/>
    </edge>
    <edge id=":1223838352_0" function="internal">
        <lane id=":1223838352_0_0" index="0" speed="13.89" length="0.29" shape="1210.23,735.72 1210.57,735.75"/>
        <lane id=":1223838352_0_1" index="1" speed="13.89" length="0.29" shape="1209.96,738.91 1210.27,738.93"/>
        <lane id=":1223838352_0_2" index="2" speed="13.89" length="0.29" shape="1209.70,742.10 1209.98,742.12"/>
        <lane id=":1223838352_0_3" index="3" speed="13.89" length="0.29" shape="1209.44,745.29 1209.68,745.31"/>
    </edge>
    <edge id=":1228147392_0" function="internal">
        <lane id=":1228147392_0_0" index="0" speed="3.65" length="4.67" shape="360.07,1411.39 358.88,1410.56 358.50,1409.76 358.92,1408.97 360.13,1408.19"/>
    </edge>
    <edge id=":1228147396_0" function="internal">
        <lane id=":1228147396_0_0" index="0" speed="8.33" length="0.31" shape="376.34,1411.92 376.04,1411.91"/>
    </edge>
    <edge id=":1228147396_1" function="internal">
        <lane id=":1228147396_1_0" index="0" speed="8.33" length="0.22" shape="376.18,1408.72 376.40,1408.72"/>
    </edge>
    <edge id=":1228149457_0" function="internal">
        <lane id=":1228149457_0_0" index="0" speed="8.33" length="0.10" shape="384.29,1412.06 384.37,1412.06"/>
    </edge>
    <edge id=":1228149457_1" function="internal">
        <lane id=":1228149457_1_0" index="0" speed="8.33" length="0.10" shape="384.43,1408.86 384.51,1408.86"/>
    </edge>
    <edge id=":1254415600_0" function="internal">
        <lane id=":1254415600_0_0" index="0" speed="13.89" length="0.14" shape="1065.15,723.41 1065.40,723.43"/>
        <lane id=":1254415600_0_1" index="1" speed="13.89" length="0.14" shape="1064.93,726.60 1065.11,726.61"/>
        <lane id=":1254415600_0_2" index="2" speed="13.89" length="0.14" shape="1064.71,729.79 1064.81,729.80"/>
        <lane id=":1254415600_0_3" index="3" speed="13.89" length="0.14" shape="1064.48,732.98 1064.52,732.99"/>
    </edge>
    <edge id=":1277967231_0" function="internal">
        <lane id=":1277967231_0_0" index="0" speed="3.65" length="4.67" shape="836.84,155.99 837.48,154.70 838.23,154.20 839.07,154.50 840.02,155.59"/>
    </edge>
    <edge id=":1287628428_0" function="internal">
        <lane id=":1287628428_0_0" index="0" speed="8.33" length="0.58" shape="1187.10,1502.29 1187.00,1502.15 1186.93,1502.06 1186.87,1501.96 1186.78,1501.81"/>
    </edge>
    <edge id=":1287628428_1" function="internal">
        <lane id=":1287628428_1_0" index="0" speed="8.33" length="0.19" shape="1189.56,1500.22 1189.59,1500.27 1189.61,1500.30 1189.63,1500.33 1189.67,1500.38"/>
    </edge>
    <edge id=":1316823342_0" function="internal">
        <lane id=":1316823342_0_0" index="0" speed="13.89" length="0.28" shape="1586.34,1245.80 1586.10,1245.95"/>
    </edge>
    <edge id=":1316823342_1" function="internal">
        <lane id=":1316823342_1_0" index="0" speed="13.89" length="0.31" shape="1584.44,1243.21 1584.71,1243.05"/>
    </edge>
    <edge id=":1321325636_0" function="internal">
        <lane id=":1321325636_0_0" index="0" speed="13.89" length="0.10" shape="1322.81,867.45 1322.68,867.53"/>
        <lane id=":1321325636_0_1" index="1" speed="13.89" length="0.10" shape="1321.20,864.69 1321.15,864.72"/>
    </edge>
    <edge id=":1321335395_0" function="internal">
        <lane id=":1321335395_0_0" index="0" speed="13.89" length="0.29" shape="889.61,603.80 889.57,603.52"/>
    </edge>
    <edge id=":1321335395_1" function="internal">
        <lane id=":1321335395_1_0" index="0" speed="13.89" length="0.31" shape="892.75,603.13 892.79,603.43"/>
    </edge>
    <edge id=":1335664904_0" function="internal">
        <lane id=":1335664904_0_0" index="0" speed="13.89" length="3.37" shape="1938.22,804.85 1941.82,805.00"/>
        <lane id=":1335664904_0_1" index="1" speed="13.89" length="3.37" shape="1938.10,808.04 1941.46,808.18"/>
        <lane id=":1335664904_0_2" index="2" speed="13.89" length="3.37" shape="1937.98,811.24 1941.10,811.36"/>
    </edge>
    <edge id=":1337618640_0" function="internal">
        <lane id=":1337618640_0_0" index="0" speed="13.89" length="0.30" shape="2376.84,841.97 2377.14,841.99"/>
        <lane id=":1337618640_0_1" index="1" speed="13.89" length="0.30" shape="2376.57,845.16 2376.86,845.18"/>
        <lane id=":1337618640_0_2" index="2" speed="13.89" length="0.30" shape="2376.29,848.34 2376.59,848.37"/>
    </edge>
    <edge id=":1350487095_0" function="internal">
        <lane id=":1350487095_0_0" index="0" speed="8.33" length="0.30" shape="1794.58,189.44 1794.55,189.14"/>
        <lane id=":1350487095_0_1" index="1" speed="8.33" length="0.30" shape="1797.76,189.05 1797.72,188.76"/>
    </edge>
    <edge id=":1363248023_0" function="internal">
        <lane id=":1363248023_0_0" index="0" speed="13.89" length="0.10" shape="1557.21,803.78 1557.21,803.78"/>
        <lane id=":1363248023_0_1" index="1" speed="13.89" length="0.10" shape="1557.48,800.59 1557.48,800.59"/>
        <lane id=":1363248023_0_2" index="2" speed="13.89" length="0.10" shape="1557.74,797.40 1557.74,797.40"/>
    </edge>
    <edge id=":1417401017_0" function="internal">
        <lane id=":1417401017_0_0" index="0" speed="13.89" length="0.10" shape="2050.75,860.81 2050.74,860.89"/>
    </edge>
    <edge id=":1417401017_1" function="internal">
        <lane id=":1417401017_1_0" index="0" speed="13.89" length="0.10" shape="2047.56,860.57 2047.55,860.65"/>
    </edge>
    <edge id=":1476399031_0" function="internal">
        <lane id=":1476399031_0_0" index="0" speed="13.89" length="0.31" shape="1213.67,1502.66 1213.43,1502.86"/>
    </edge>
    <edge id=":1476399031_1" function="internal">
        <lane id=":1476399031_1_0" index="0" speed="13.89" length="0.22" shape="1211.41,1500.38 1211.57,1500.25"/>
    </edge>
    <edge id=":1560866121_0" function="internal">
        <lane id=":1560866121_0_0" index="0" speed="13.89" length="0.29" shape="1731.07,345.86 1730.91,345.99"/>
        <lane id=":1560866121_0_1" index="1" speed="13.89" length="0.29" shape="1729.11,343.34 1728.88,343.52"/>
        <lane id=":1560866121_0_2" index="2" speed="13.89" length="0.29" shape="1727.14,340.81 1726.84,341.05"/>
    </edge>
    <edge id=":1560874123_0" function="internal">
        <lane id=":1560874123_0_0" index="0" speed="5.56" length="14.37" shape="2231.50,304.17 2218.94,310.99"/>
        <lane id=":1560874123_0_1" index="1" speed="5.56" length="14.37" shape="2230.06,301.31 2217.36,308.20"/>
    </edge>
    <edge id=":1560874123_2" function="internal">
        <lane id=":1560874123_2_0" index="0" speed="5.56" length="11.82" shape="2230.06,301.31 2226.42,302.77 2223.45,303.10 2221.17,302.30 2219.56,300.39"/>
        <lane id=":1560874123_2_1" index="1" speed="5.56" length="9.13" shape="2230.06,301.31 2227.67,302.13 2225.59,302.01 2223.84,300.94 2222.41,298.93"/>
    </edge>
    <edge id=":1656102229_0" function="internal">
        <lane id=":1656102229_0_0" index="0" speed="13.89" length="0.75" shape="1440.91,844.95 1440.92,844.98 1440.93,845.00 1440.95,845.02 1440.97,845.05"/>
        <lane id=":1656102229_0_1" index="1" speed="13.89" length="0.75" shape="1437.78,844.20 1437.73,844.61 1437.72,844.89 1437.75,845.18 1437.81,845.58"/>
    </edge>
    <edge id=":1702876860_0" function="internal">
        <lane id=":1702876860_0_0" index="0" speed="8.33" length="0.29" shape="1620.99,311.89 1621.23,311.69"/>
        <lane id=":1702876860_0_1" index="1" speed="8.33" length="0.29" shape="1623.01,314.37 1623.23,314.20"/>
    </edge>
    <edge id=":1723927593_0" function="internal">
        <lane id=":1723927593_0_0" index="0" speed="13.89" length="0.41" shape="1413.79,871.24 1413.74,871.11"/>
        <lane id=":1723927593_0_1" index="1" speed="13.89" length="0.41" shape="1416.82,870.21 1416.67,869.83"/>
        <lane id=":1723927593_0_2" index="2" speed="13.89" length="0.41" shape="1419.85,869.18 1419.60,868.54"/>
    </edge>
    <edge id=":1723927599_0" function="internal">
        <lane id=":1723927599_0_0" index="0" speed="13.89" length="8.31" shape="1420.60,895.53 1420.12,893.21 1419.01,891.79 1417.84,890.38 1417.19,888.07"/>
        <lane id=":1723927599_0_1" index="1" speed="13.89" length="8.31" shape="1423.80,895.55 1423.32,893.16 1422.20,891.70 1421.03,890.24 1420.38,887.86"/>
        <lane id=":1723927599_0_2" index="2" speed="13.89" length="8.31" shape="1423.80,895.55 1423.57,887.65"/>
    </edge>
    <edge id=":1737184227_0" function="internal">
        <lane id=":1737184227_0_0" index="0" speed="8.33" length="0.30" shape="1636.57,300.29 1636.81,300.12"/>
        <lane id=":1737184227_0_1" index="1" speed="8.33" length="0.30" shape="1638.41,302.91 1638.66,302.73"/>
    </edge>
    <edge id=":1737184228_0" function="internal">
        <lane id=":1737184228_0_0" index="0" speed="8.33" length="3.65" shape="1634.55,301.60 1631.57,303.63"/>
        <lane id=":1737184228_0_1" index="1" speed="8.33" length="3.65" shape="1636.35,304.24 1633.30,306.32"/>
    </edge>
    <edge id=":1749584806_0" function="internal">
        <lane id=":1749584806_0_0" index="0" speed="8.33" length="0.10" shape="1260.80,350.16 1260.76,350.23"/>
    </edge>
    <edge id=":1749584806_1" function="internal">
        <lane id=":1749584806_1_0" index="0" speed="8.33" length="0.10" shape="1257.92,348.77 1257.88,348.84"/>
    </edge>
    <edge id=":1749584807_0" function="internal">
        <lane id=":1749584807_0_0" index="0" speed="8.33" length="0.31" shape="1301.92,364.45 1301.61,364.49"/>
    </edge>
    <edge id=":1749584807_1" function="internal">
        <lane id=":1749584807_1_0" index="0" speed="8.33" length="0.29" shape="1301.29,361.30 1301.58,361.27"/>
    </edge>
    <edge id=":1749584808_0" function="internal">
        <lane id=":1749584808_0_0" index="0" speed="8.33" length="0.25" shape="1276.83,367.01 1276.58,367.04"/>
    </edge>
    <edge id=":1749584808_1" function="internal">
        <lane id=":1749584808_1_0" index="0" speed="8.33" length="0.31" shape="1276.20,363.86 1276.51,363.82"/>
    </edge>
    <edge id=":1750917592_0" function="internal">
        <lane id=":1750917592_0_0" index="0" speed="5.56" length="0.30" shape="2194.49,163.50 2194.63,163.77"/>
        <lane id=":1750917592_0_1" index="1" speed="5.56" length="0.30" shape="2191.64,164.95 2191.77,165.20"/>
    </edge>
    <edge id=":1750917593_0" function="internal">
        <lane id=":1750917593_0_0" index="0" speed="8.33" length="0.10" shape="2061.25,196.71 2061.31,196.82"/>
        <lane id=":1750917593_0_1" index="1" speed="8.33" length="0.10" shape="2058.41,198.18 2058.43,198.22"/>
    </edge>
    <edge id=":1757441427_0" function="internal">
        <lane id=":1757441427_0_0" index="0" speed="13.89" length="8.53" shape="1155.71,924.78 1153.49,925.90 1152.31,927.37 1151.14,928.84 1148.92,930.00"/>
        <lane id=":1757441427_0_1" index="1" speed="13.89" length="8.53" shape="1154.88,921.69 1152.64,922.82 1151.45,924.28 1150.27,925.76 1148.04,926.93"/>
        <lane id=":1757441427_0_2" index="2" speed="13.89" length="8.53" shape="1154.88,921.69 1147.15,923.85"/>
    </edge>
    <edge id=":17777145_0" function="internal">
        <lane id=":17777145_0_0" index="0" speed="7.14" length="9.82" shape="534.83,726.75 534.24,724.85 532.79,723.41 530.46,722.42 527.25,721.89"/>
    </edge>
    <edge id=":17777145_1" function="internal">
        <lane id=":17777145_1_0" index="0" speed="11.11" length="19.84" shape="534.83,726.75 533.48,706.96"/>
    </edge>
    <edge id=":17777145_2" function="internal">
        <lane id=":17777145_2_0" index="0" speed="3.65" length="4.67" shape="534.83,726.75 535.54,725.50 536.31,725.05 537.14,725.39 538.02,726.54"/>
    </edge>
    <edge id=":17777145_3" function="internal">
        <lane id=":17777145_3_0" index="0" speed="5.61" length="7.24" shape="543.31,723.33 540.90,723.33 539.22,723.87 538.25,724.93 538.02,726.54"/>
    </edge>
    <edge id=":17777145_4" function="internal">
        <lane id=":17777145_4_0" index="0" speed="13.89" length="16.19" shape="543.31,723.33 527.25,721.89"/>
        <lane id=":17777145_4_1" index="1" speed="13.89" length="16.19" shape="543.62,720.14 527.51,718.70"/>
        <lane id=":17777145_4_2" index="2" speed="13.89" length="16.19" shape="543.92,716.96 527.78,715.51"/>
        <lane id=":17777145_4_3" index="3" speed="13.89" length="16.19" shape="544.22,713.77 528.04,712.32"/>
    </edge>
    <edge id=":17777145_8" function="internal">
        <lane id=":17777145_8_0" index="0" speed="8.41" length="13.83" shape="544.22,713.77 539.67,712.98 536.36,711.57 534.30,709.57 533.48,706.96"/>
    </edge>
    <edge id=":17777145_9" function="internal">
        <lane id=":17777145_9_0" index="0" speed="11.11" length="19.84" shape="536.67,706.74 538.02,726.54"/>
    </edge>
    <edge id=":17777145_10" function="internal">
        <lane id=":17777145_10_0" index="0" speed="7.05" length="12.01" shape="536.67,706.74 536.29,709.46 534.73,711.30 531.98,712.25 528.04,712.32"/>
    </edge>
    <edge id=":17777145_11" function="internal">
        <lane id=":17777145_11_0" index="0" speed="3.65" length="4.67" shape="536.67,706.74 535.96,707.99 535.18,708.44 534.36,708.10 533.48,706.96"/>
    </edge>
    <edge id=":1781654674_0" function="internal">
        <lane id=":1781654674_0_0" index="0" speed="8.33" length="0.82" shape="2312.01,1220.20 2311.95,1219.97 2311.92,1219.80 2311.90,1219.64 2311.89,1219.40"/>
    </edge>
    <edge id=":1781654674_1" function="internal">
        <lane id=":1781654674_1_0" index="0" speed="8.33" length="0.27" shape="2315.08,1219.18 2315.08,1219.26 2315.09,1219.32 2315.10,1219.37 2315.12,1219.45"/>
    </edge>
    <edge id=":1781654676_0" function="internal">
        <lane id=":1781654676_0_0" index="0" speed="8.33" length="0.93" shape="2315.29,1233.37 2315.17,1233.12 2315.10,1232.94 2315.05,1232.76 2314.98,1232.49"/>
    </edge>
    <edge id=":1781654676_1" function="internal">
        <lane id=":1781654676_1_0" index="0" speed="8.33" length="0.31" shape="2318.09,1231.74 2318.11,1231.83 2318.13,1231.89 2318.16,1231.95 2318.19,1232.03"/>
    </edge>
    <edge id=":1808258713_0" function="internal">
        <lane id=":1808258713_0_0" index="0" speed="13.89" length="12.08" shape="2380.50,976.88 2384.86,988.12"/>
        <lane id=":1808258713_0_1" index="1" speed="13.89" length="12.08" shape="2377.51,978.01 2381.88,989.28"/>
    </edge>
    <edge id=":1808258713_2" function="internal">
        <lane id=":1808258713_2_0" index="0" speed="11.47" length="10.71" shape="2377.51,978.01 2378.63,980.97 2379.22,983.15 2379.12,985.33 2378.19,988.29"/>
        <lane id=":1808258713_2_1" index="1" speed="11.01" length="9.85" shape="2377.51,978.01 2378.08,980.68 2377.61,982.58 2376.51,984.48 2375.20,987.14"/>
    </edge>
    <edge id=":1832967693_0" function="internal">
        <lane id=":1832967693_0_0" index="0" speed="13.89" length="0.35" shape="1603.34,1322.38 1603.02,1322.51"/>
    </edge>
    <edge id=":1832967693_1" function="internal">
        <lane id=":1832967693_1_0" index="0" speed="13.89" length="0.12" shape="1601.91,1319.51 1602.01,1319.47"/>
    </edge>
    <edge id=":1832967698_0" function="internal">
        <lane id=":1832967698_0_0" index="0" speed="13.89" length="0.10" shape="1623.75,1328.85 1623.79,1328.93"/>
    </edge>
    <edge id=":1832967698_1" function="internal">
        <lane id=":1832967698_1_0" index="0" speed="13.89" length="0.10" shape="1626.57,1327.33 1626.61,1327.41"/>
    </edge>
    <edge id=":1837751357_0" function="internal">
        <lane id=":1837751357_0_0" index="0" speed="13.89" length="0.30" shape="1965.96,845.05 1965.67,845.02"/>
        <lane id=":1837751357_0_1" index="1" speed="13.89" length="0.30" shape="1966.23,841.86 1965.94,841.84"/>
        <lane id=":1837751357_0_2" index="2" speed="13.89" length="0.30" shape="1966.51,838.67 1966.21,838.65"/>
        <lane id=":1837751357_0_3" index="3" speed="13.89" length="0.30" shape="1966.79,835.49 1966.49,835.46"/>
        <lane id=":1837751357_0_4" index="4" speed="13.89" length="0.30" shape="1967.07,832.30 1966.76,832.27"/>
    </edge>
    <edge id=":1840963728_0" function="internal">
        <lane id=":1840963728_0_0" index="0" speed="8.33" length="14.24" shape="1277.06,205.46 1262.88,206.81"/>
    </edge>
    <edge id=":1840963728_1" function="internal">
        <lane id=":1840963728_1_0" index="0" speed="8.09" length="5.72" shape="1277.06,205.46 1273.23,205.21 1271.54,204.38"/>
    </edge>
    <edge id=":1840963728_2" function="internal">
        <lane id=":1840963728_2_0" index="0" speed="3.65" length="2.34" shape="1277.06,205.46 1275.80,204.75 1275.34,203.99"/>
    </edge>
    <edge id=":1840963728_9" function="internal">
        <lane id=":1840963728_9_0" index="0" speed="8.09" length="8.43" shape="1271.54,204.38 1270.35,203.79 1268.43,201.20 1267.46,197.44"/>
    </edge>
    <edge id=":1840963728_10" function="internal">
        <lane id=":1840963728_10_0" index="0" speed="3.65" length="2.34" shape="1275.34,203.99 1275.67,203.16 1276.81,202.27"/>
    </edge>
    <edge id=":1840963728_3" function="internal">
        <lane id=":1840963728_3_0" index="0" speed="6.61" length="9.12" shape="1270.64,197.08 1271.26,199.51 1272.50,201.19 1274.35,202.11 1276.81,202.27"/>
    </edge>
    <edge id=":1840963728_4" function="internal">
        <lane id=":1840963728_4_0" index="0" speed="8.00" length="14.20" shape="1270.64,197.08 1270.53,200.97 1269.20,203.89 1266.65,205.84 1262.88,206.81"/>
    </edge>
    <edge id=":1840963728_5" function="internal">
        <lane id=":1840963728_5_0" index="0" speed="3.65" length="4.67" shape="1270.64,197.08 1269.98,198.37 1269.23,198.85 1268.39,198.55 1267.46,197.44"/>
    </edge>
    <edge id=":1840963728_6" function="internal">
        <lane id=":1840963728_6_0" index="0" speed="6.51" length="9.03" shape="1262.52,203.63 1264.92,203.01 1266.54,201.77 1267.39,199.92 1267.46,197.44"/>
    </edge>
    <edge id=":1840963728_7" function="internal">
        <lane id=":1840963728_7_0" index="0" speed="8.33" length="14.35" shape="1262.52,203.63 1276.81,202.27"/>
    </edge>
    <edge id=":1840963728_8" function="internal">
        <lane id=":1840963728_8_0" index="0" speed="3.65" length="2.34" shape="1262.52,203.63 1263.81,204.29 1264.29,205.04"/>
    </edge>
    <edge id=":1840963728_11" function="internal">
        <lane id=":1840963728_11_0" index="0" speed="3.65" length="2.34" shape="1264.29,205.04 1263.98,205.88 1262.88,206.81"/>
    </edge>
    <edge id=":1914277850_0" function="internal">
        <lane id=":1914277850_0_0" index="0" speed="13.89" length="0.21" shape="2486.43,1169.54 2486.31,1169.37"/>
    </edge>
    <edge id=":1914277850_1" function="internal">
        <lane id=":1914277850_1_0" index="0" speed="13.89" length="0.31" shape="2488.86,1167.44 2489.04,1167.69"/>
    </edge>
    <edge id=":1972845722_0" function="internal">
        <lane id=":1972845722_0_0" index="0" speed="13.89" length="8.41" shape="957.22,1052.23 955.65,1050.26 953.97,1049.39 952.29,1048.51 950.74,1046.53"/>
        <lane id=":1972845722_0_1" index="1" speed="13.89" length="8.41" shape="957.22,1052.23 953.59,1045.10"/>
    </edge>
    <edge id=":1972845722_2" function="internal">
        <lane id=":1972845722_2_0" index="0" speed="13.89" length="7.98" shape="956.45,1043.66 960.07,1050.77"/>
    </edge>
    <edge id=":1980757232_0" function="internal">
        <lane id=":1980757232_0_0" index="0" speed="7.14" length="10.21" shape="1113.29,378.31 1112.60,375.63 1111.23,373.72 1109.18,372.59 1106.46,372.23"/>
    </edge>
    <edge id=":1980757232_1" function="internal">
        <lane id=":1980757232_1_0" index="0" speed="8.33" length="15.18" shape="1113.29,378.31 1111.52,363.23"/>
    </edge>
    <edge id=":1980757232_2" function="internal">
        <lane id=":1980757232_2_0" index="0" speed="7.79" length="5.96" shape="1113.29,378.31 1113.41,374.21 1114.23,372.54"/>
    </edge>
    <edge id=":1980757232_3" function="internal">
        <lane id=":1980757232_3_0" index="0" speed="3.65" length="2.34" shape="1113.29,378.31 1113.95,377.02 1114.70,376.53"/>
    </edge>
    <edge id=":1980757232_16" function="internal">
        <lane id=":1980757232_16_0" index="0" speed="7.79" length="8.72" shape="1114.23,372.54 1114.83,371.30 1117.58,369.56 1121.64,369.01"/>
    </edge>
    <edge id=":1980757232_17" function="internal">
        <lane id=":1980757232_17_0" index="0" speed="3.65" length="2.34" shape="1114.70,376.53 1115.54,376.84 1116.47,377.94"/>
    </edge>
    <edge id=":1980757232_4" function="internal">
        <lane id=":1980757232_4_0" index="0" speed="6.25" length="9.05" shape="1121.61,372.21 1119.11,372.55 1117.42,373.62 1116.54,375.42 1116.47,377.94"/>
    </edge>
    <edge id=":1980757232_5" function="internal">
        <lane id=":1980757232_5_0" index="0" speed="8.33" length="15.16" shape="1121.61,372.21 1106.46,372.23"/>
    </edge>
    <edge id=":1980757232_6" function="internal">
        <lane id=":1980757232_6_0" index="0" speed="8.33" length="15.02" shape="1121.61,372.21 1117.59,371.62 1114.57,369.93 1112.55,367.13 1111.52,363.23"/>
    </edge>
    <edge id=":1980757232_7" function="internal">
        <lane id=":1980757232_7_0" index="0" speed="3.65" length="4.67" shape="1121.61,372.21 1120.42,371.40 1120.03,370.60 1120.43,369.80 1121.64,369.01"/>
    </edge>
    <edge id=":1980757232_8" function="internal">
        <lane id=":1980757232_8_0" index="0" speed="7.24" length="10.31" shape="1114.70,362.85 1115.40,365.53 1116.80,367.45 1118.87,368.61 1121.64,369.01"/>
    </edge>
    <edge id=":1980757232_9" function="internal">
        <lane id=":1980757232_9_0" index="0" speed="8.33" length="15.19" shape="1114.70,362.85 1116.47,377.94"/>
    </edge>
    <edge id=":1980757232_10" function="internal">
        <lane id=":1980757232_10_0" index="0" speed="7.82" length="5.97" shape="1114.70,362.85 1114.60,366.92 1113.77,368.63"/>
    </edge>
    <edge id=":1980757232_11" function="internal">
        <lane id=":1980757232_11_0" index="0" speed="3.65" length="2.34" shape="1114.70,362.85 1114.04,364.14 1113.30,364.63"/>
    </edge>
    <edge id=":1980757232_18" function="internal">
        <lane id=":1980757232_18_0" index="0" speed="7.82" length="8.64" shape="1113.77,368.63 1113.19,369.84 1110.47,371.61 1106.46,372.23"/>
    </edge>
    <edge id=":1980757232_19" function="internal">
        <lane id=":1980757232_19_0" index="0" speed="3.65" length="2.34" shape="1113.30,364.63 1112.46,364.33 1111.52,363.23"/>
    </edge>
    <edge id=":1980757232_12" function="internal">
        <lane id=":1980757232_12_0" index="0" speed="6.29" length="9.04" shape="1106.42,369.03 1108.91,368.65 1110.59,367.55 1111.46,365.74 1111.52,363.23"/>
    </edge>
    <edge id=":1980757232_13" function="internal">